# RCH package for  MODFLOW-2005, generated by Flopy.
         3         0
         1        -1 # Stress period 1
INTERNAL               1  (50E15.6) -1 #rech_1                        
   4.000000E-05   4.000000E-05   4.000000E-05   4.000000E-05   4.000000E-05   4.000000E-05   4.000000E-05   4.000000E-05   4.000000E-05   4.000000E-05   4.000000E-05   4.000000E-05   4.000000E-05   4.000000E-05   4.000000E-05   0.000000E+00   0.000000E+00   0.000000E+00   0.000000E+00   0.000000E+00   0.000000E+00   0.000000E+00   0.000000E+00   0.000000E+00   0.000000E+00   0.000000E+00   0.000000E+00   0.000000E+00   0.000000E+00   0.000000E+00   0.000000E+00   0.000000E+00   0.000000E+00   0.000000E+00   0.000000E+00   0.000000E+00   0.000000E+00   0.000000E+00   0.000000E+00   0.000000E+00   0.000000E+00   0.000000E+00   0.000000E+00   0.000000E+00   0.000000E+00   0.000000E+00   0.000000E+00   0.000000E+00   0.000000E+00   0.000000E+00
   4.000000E-05   4.000000E-05   4.000000E-05   4.000000E-05   4.000000E-05   4.000000E-05   4.000000E-05   4.000000E-05   4.000000E-05   4.000000E-05   4.000000E-05   4.000000E-05   4.000000E-05   4.000000E-05   4.000000E-05   0.000000E+00   0.000000E+00   0.000000E+00   0.000000E+00   0.000000E+00   0.000000E+00   0.000000E+00   0.000000E+00   0.000000E+00   0.000000E+00   0.000000E+00   0.000000E+00   0.000000E+00   0.000000E+00   0.000000E+00   0.000000E+00   0.000000E+00   0.000000E+00   0.000000E+00   0.000000E+00   0.000000E+00   0.000000E+00   0.000000E+00   0.000000E+00   0.000000E+00   0.000000E+00   0.000000E+00   0.000000E+00   0.000000E+00   0.000000E+00   0.000000E+00   0.000000E+00   0.000000E+00   0.000000E+00   0.000000E+00
   4.000000E-05   4.000000E-05   4.000000E-05   4.000000E-05   4.000000E-05   4.000000E-05   4.000000E-05   4.000000E-05   4.000000E-05   4.000000E-05   4.000000E-05   4.000000E-05   4.000000E-05   4.000000E-05   4.000000E-05   0.000000E+00   0.000000E+00   0.000000E+00   0.000000E+00   0.000000E+00   0.000000E+00   0.000000E+00   0.000000E+00   0.000000E+00   0.000000E+00   0.000000E+00   0.000000E+00   0.000000E+00   0.000000E+00   0.000000E+00   0.000000E+00   0.000000E+00   0.000000E+00   0.000000E+00   0.000000E+00   0.000000E+00   0.000000E+00   0.000000E+00   0.000000E+00   0.000000E+00   0.000000E+00   0.000000E+00   0.000000E+00   0.000000E+00   0.000000E+00   0.000000E+00   0.000000E+00   0.000000E+00   0.000000E+00   0.000000E+00
   4.000000E-05   4.000000E-05   4.000000E-05   4.000000E-05   4.000000E-05   4.000000E-05   4.000000E-05   4.000000E-05   4.000000E-05   4.000000E-05   4.000000E-05   4.000000E-05   4.000000E-05   4.000000E-05   4.000000E-05   0.000000E+00   0.000000E+00   0.000000E+00   0.000000E+00   0.000000E+00   0.000000E+00   0.000000E+00   0.000000E+00   0.000000E+00   0.000000E+00   0.000000E+00   0.000000E+00   0.000000E+00   0.000000E+00   0.000000E+00   0.000000E+00   0.000000E+00   0.000000E+00   0.000000E+00   0.000000E+00   0.000000E+00   0.000000E+00   0.000000E+00   0.000000E+00   0.000000E+00   0.000000E+00   0.000000E+00   0.000000E+00   0.000000E+00   0.000000E+00   0.000000E+00   0.000000E+00   0.000000E+00   0.000000E+00   0.000000E+00
   4.000000E-05   4.000000E-05   4.000000E-05   4.000000E-05   4.000000E-05   4.000000E-05   4.000000E-05   4.000000E-05   4.000000E-05   4.000000E-05   4.000000E-05   4.000000E-05   4.000000E-05   4.000000E-05   4.000000E-05   0.000000E+00   0.000000E+00   0.000000E+00   0.000000E+00   0.000000E+00   0.000000E+00   0.000000E+00   0.000000E+00   0.000000E+00   0.000000E+00   0.000000E+00   0.000000E+00   0.000000E+00   0.000000E+00   0.000000E+00   0.000000E+00   0.000000E+00   0.000000E+00   0.000000E+00   0.000000E+00   0.000000E+00   0.000000E+00   0.000000E+00   0.000000E+00   0.000000E+00   0.000000E+00   0.000000E+00   0.000000E+00   0.000000E+00   0.000000E+00   0.000000E+00   0.000000E+00   0.000000E+00   0.000000E+00   0.000000E+00
   4.000000E-05   4.000000E-05   4.000000E-05   4.000000E-05   4.000000E-05   4.000000E-05   4.000000E-05   4.000000E-05   4.000000E-05   4.000000E-05   4.000000E-05   4.000000E-05   4.000000E-05   4.000000E-05   4.000000E-05   0.000000E+00   0.000000E+00   0.000000E+00   0.000000E+00   0.000000E+00   0.000000E+00   0.000000E+00   0.000000E+00   0.000000E+00   0.000000E+00   0.000000E+00   0.000000E+00   0.000000E+00   0.000000E+00   0.000000E+00   0.000000E+00   0.000000E+00   0.000000E+00   0.000000E+00   0.000000E+00   0.000000E+00   0.000000E+00   0.000000E+00   0.000000E+00   0.000000E+00   0.000000E+00   0.000000E+00   0.000000E+00   0.000000E+00   0.000000E+00   0.000000E+00   0.000000E+00   0.000000E+00   0.000000E+00   0.000000E+00
   4.000000E-05   4.000000E-05   4.000000E-05   4.000000E-05   4.000000E-05   4.000000E-05   4.000000E-05   4.000000E-05   4.000000E-05   4.000000E-05   4.000000E-05   4.000000E-05   4.000000E-05   4.000000E-05   4.000000E-05   0.000000E+00   0.000000E+00   0.000000E+00   0.000000E+00   0.000000E+00   0.000000E+00   0.000000E+00   0.000000E+00   0.000000E+00   0.000000E+00   0.000000E+00   0.000000E+00   0.000000E+00   0.000000E+00   0.000000E+00   0.000000E+00   0.000000E+00   0.000000E+00   0.000000E+00   0.000000E+00   0.000000E+00   0.000000E+00   0.000000E+00   0.000000E+00   0.000000E+00   0.000000E+00   0.000000E+00   0.000000E+00   0.000000E+00   0.000000E+00   0.000000E+00   0.000000E+00   0.000000E+00   0.000000E+00   0.000000E+00
   4.000000E-05   4.000000E-05   4.000000E-05   4.000000E-05   4.000000E-05   4.000000E-05   4.000000E-05   4.000000E-05   4.000000E-05   4.000000E-05   4.000000E-05   4.000000E-05   4.000000E-05   4.000000E-05   4.000000E-05   0.000000E+00   0.000000E+00   0.000000E+00   0.000000E+00   0.000000E+00   0.000000E+00   0.000000E+00   0.000000E+00   0.000000E+00   0.000000E+00   0.000000E+00   0.000000E+00   0.000000E+00   0.000000E+00   0.000000E+00   0.000000E+00   0.000000E+00   0.000000E+00   0.000000E+00   0.000000E+00   0.000000E+00   0.000000E+00   0.000000E+00   0.000000E+00   0.000000E+00   0.000000E+00   0.000000E+00   0.000000E+00   0.000000E+00   0.000000E+00   0.000000E+00   0.000000E+00   0.000000E+00   0.000000E+00   0.000000E+00
   4.000000E-05   4.000000E-05   4.000000E-05   4.000000E-05   4.000000E-05   4.000000E-05   4.000000E-05   4.000000E-05   4.000000E-05   4.000000E-05   4.000000E-05   4.000000E-05   4.000000E-05   4.000000E-05   4.000000E-05   0.000000E+00   0.000000E+00   0.000000E+00   0.000000E+00   0.000000E+00   0.000000E+00   0.000000E+00   0.000000E+00   0.000000E+00   0.000000E+00   0.000000E+00   0.000000E+00   0.000000E+00   0.000000E+00   0.000000E+00   0.000000E+00   0.000000E+00   0.000000E+00   0.000000E+00   0.000000E+00   0.000000E+00   0.000000E+00   0.000000E+00   0.000000E+00   0.000000E+00   0.000000E+00   0.000000E+00   0.000000E+00   0.000000E+00   0.000000E+00   0.000000E+00   0.000000E+00   0.000000E+00   0.000000E+00   0.000000E+00
   4.000000E-05   4.000000E-05   4.000000E-05   4.000000E-05   4.000000E-05   4.000000E-05   4.000000E-05   4.000000E-05   4.000000E-05   4.000000E-05   4.000000E-05   4.000000E-05   4.000000E-05   4.000000E-05   4.000000E-05   0.000000E+00   0.000000E+00   0.000000E+00   0.000000E+00   0.000000E+00   0.000000E+00   0.000000E+00   0.000000E+00   0.000000E+00   0.000000E+00   0.000000E+00   0.000000E+00   0.000000E+00   0.000000E+00   0.000000E+00   0.000000E+00   0.000000E+00   0.000000E+00   0.000000E+00   0.000000E+00   0.000000E+00   0.000000E+00   0.000000E+00   0.000000E+00   0.000000E+00   0.000000E+00   0.000000E+00   0.000000E+00   0.000000E+00   0.000000E+00   0.000000E+00   0.000000E+00   0.000000E+00   0.000000E+00   0.000000E+00
   4.000000E-05   4.000000E-05   4.000000E-05   4.000000E-05   4.000000E-05   4.000000E-05   4.000000E-05   4.000000E-05   4.000000E-05   4.000000E-05   4.000000E-05   4.000000E-05   4.000000E-05   4.000000E-05   4.000000E-05   0.000000E+00   0.000000E+00   0.000000E+00   0.000000E+00   0.000000E+00   0.000000E+00   0.000000E+00   0.000000E+00   0.000000E+00   0.000000E+00   0.000000E+00   0.000000E+00   0.000000E+00   0.000000E+00   0.000000E+00   0.000000E+00   0.000000E+00   0.000000E+00   0.000000E+00   0.000000E+00   0.000000E+00   0.000000E+00   0.000000E+00   0.000000E+00   0.000000E+00   0.000000E+00   0.000000E+00   0.000000E+00   0.000000E+00   0.000000E+00   0.000000E+00   0.000000E+00   0.000000E+00   0.000000E+00   0.000000E+00
   4.000000E-05   4.000000E-05   4.000000E-05   4.000000E-05   4.000000E-05   4.000000E-05   4.000000E-05   4.000000E-05   4.000000E-05   4.000000E-05   4.000000E-05   4.000000E-05   4.000000E-05   4.000000E-05   4.000000E-05   0.000000E+00   0.000000E+00   0.000000E+00   0.000000E+00   0.000000E+00   0.000000E+00   0.000000E+00   0.000000E+00   0.000000E+00   0.000000E+00   0.000000E+00   0.000000E+00   0.000000E+00   0.000000E+00   0.000000E+00   0.000000E+00   0.000000E+00   0.000000E+00   0.000000E+00   0.000000E+00   0.000000E+00   0.000000E+00   0.000000E+00   0.000000E+00   0.000000E+00   0.000000E+00   0.000000E+00   0.000000E+00   0.000000E+00   0.000000E+00   0.000000E+00   0.000000E+00   0.000000E+00   0.000000E+00   0.000000E+00
   4.000000E-05   4.000000E-05   4.000000E-05   4.000000E-05   4.000000E-05   4.000000E-05   4.000000E-05   4.000000E-05   4.000000E-05   4.000000E-05   4.000000E-05   4.000000E-05   4.000000E-05   4.000000E-05   4.000000E-05   0.000000E+00   0.000000E+00   0.000000E+00   0.000000E+00   0.000000E+00   0.000000E+00   0.000000E+00   0.000000E+00   0.000000E+00   0.000000E+00   0.000000E+00   0.000000E+00   0.000000E+00   0.000000E+00   0.000000E+00   0.000000E+00   0.000000E+00   0.000000E+00   0.000000E+00   0.000000E+00   0.000000E+00   0.000000E+00   0.000000E+00   0.000000E+00   0.000000E+00   0.000000E+00   0.000000E+00   0.000000E+00   0.000000E+00   0.000000E+00   0.000000E+00   0.000000E+00   0.000000E+00   0.000000E+00   0.000000E+00
   4.000000E-05   4.000000E-05   4.000000E-05   4.000000E-05   4.000000E-05   4.000000E-05   4.000000E-05   4.000000E-05   4.000000E-05   4.000000E-05   4.000000E-05   4.000000E-05   4.000000E-05   4.000000E-05   4.000000E-05   0.000000E+00   0.000000E+00   0.000000E+00   0.000000E+00   0.000000E+00   0.000000E+00   0.000000E+00   0.000000E+00   0.000000E+00   0.000000E+00   0.000000E+00   0.000000E+00   0.000000E+00   0.000000E+00   0.000000E+00   0.000000E+00   0.000000E+00   0.000000E+00   0.000000E+00   0.000000E+00   0.000000E+00   0.000000E+00   0.000000E+00   0.000000E+00   0.000000E+00   0.000000E+00   0.000000E+00   0.000000E+00   0.000000E+00   0.000000E+00   0.000000E+00   0.000000E+00   0.000000E+00   0.000000E+00   0.000000E+00
   4.000000E-05   4.000000E-05   4.000000E-05   4.000000E-05   4.000000E-05   4.000000E-05   4.000000E-05   4.000000E-05   4.000000E-05   4.000000E-05   4.000000E-05   4.000000E-05   4.000000E-05   4.000000E-05   4.000000E-05   0.000000E+00   0.000000E+00   0.000000E+00   0.000000E+00   0.000000E+00   0.000000E+00   0.000000E+00   0.000000E+00   0.000000E+00   0.000000E+00   0.000000E+00   0.000000E+00   0.000000E+00   0.000000E+00   0.000000E+00   0.000000E+00   0.000000E+00   0.000000E+00   0.000000E+00   0.000000E+00   0.000000E+00   0.000000E+00   0.000000E+00   0.000000E+00   0.000000E+00   0.000000E+00   0.000000E+00   0.000000E+00   0.000000E+00   0.000000E+00   0.000000E+00   0.000000E+00   0.000000E+00   0.000000E+00   0.000000E+00
   4.000000E-05   4.000000E-05   4.000000E-05   4.000000E-05   4.000000E-05   4.000000E-05   4.000000E-05   4.000000E-05   4.000000E-05   4.000000E-05   4.000000E-05   4.000000E-05   4.000000E-05   4.000000E-05   4.000000E-05   0.000000E+00   0.000000E+00   0.000000E+00   0.000000E+00   0.000000E+00   0.000000E+00   0.000000E+00   0.000000E+00   0.000000E+00   0.000000E+00   0.000000E+00   0.000000E+00   0.000000E+00   0.000000E+00   0.000000E+00   0.000000E+00   0.000000E+00   0.000000E+00   0.000000E+00   0.000000E+00   0.000000E+00   0.000000E+00   0.000000E+00   0.000000E+00   0.000000E+00   0.000000E+00   0.000000E+00   0.000000E+00   0.000000E+00   0.000000E+00   0.000000E+00   0.000000E+00   0.000000E+00   0.000000E+00   0.000000E+00
   4.000000E-05   4.000000E-05   4.000000E-05   4.000000E-05   4.000000E-05   4.000000E-05   4.000000E-05   4.000000E-05   4.000000E-05   4.000000E-05   4.000000E-05   4.000000E-05   4.000000E-05   4.000000E-05   4.000000E-05   0.000000E+00   0.000000E+00   0.000000E+00   0.000000E+00   0.000000E+00   0.000000E+00   0.000000E+00   0.000000E+00   0.000000E+00   0.000000E+00   0.000000E+00   0.000000E+00   0.000000E+00   0.000000E+00   0.000000E+00   0.000000E+00   0.000000E+00   0.000000E+00   0.000000E+00   0.000000E+00   0.000000E+00   0.000000E+00   0.000000E+00   0.000000E+00   0.000000E+00   0.000000E+00   0.000000E+00   0.000000E+00   0.000000E+00   0.000000E+00   0.000000E+00   0.000000E+00   0.000000E+00   0.000000E+00   0.000000E+00
   4.000000E-05   4.000000E-05   4.000000E-05   4.000000E-05   4.000000E-05   4.000000E-05   4.000000E-05   4.000000E-05   4.000000E-05   4.000000E-05   4.000000E-05   4.000000E-05   4.000000E-05   4.000000E-05   4.000000E-05   0.000000E+00   0.000000E+00   0.000000E+00   0.000000E+00   0.000000E+00   0.000000E+00   0.000000E+00   0.000000E+00   0.000000E+00   0.000000E+00   0.000000E+00   0.000000E+00   0.000000E+00   0.000000E+00   0.000000E+00   0.000000E+00   0.000000E+00   0.000000E+00   0.000000E+00   0.000000E+00   0.000000E+00   0.000000E+00   0.000000E+00   0.000000E+00   0.000000E+00   0.000000E+00   0.000000E+00   0.000000E+00   0.000000E+00   0.000000E+00   0.000000E+00   0.000000E+00   0.000000E+00   0.000000E+00   0.000000E+00
   4.000000E-05   4.000000E-05   4.000000E-05   4.000000E-05   4.000000E-05   4.000000E-05   4.000000E-05   4.000000E-05   4.000000E-05   4.000000E-05   4.000000E-05   4.000000E-05   4.000000E-05   4.000000E-05   4.000000E-05   0.000000E+00   0.000000E+00   0.000000E+00   0.000000E+00   0.000000E+00   0.000000E+00   0.000000E+00   0.000000E+00   0.000000E+00   0.000000E+00   0.000000E+00   0.000000E+00   0.000000E+00   0.000000E+00   0.000000E+00   0.000000E+00   0.000000E+00   0.000000E+00   0.000000E+00   0.000000E+00   0.000000E+00   0.000000E+00   0.000000E+00   0.000000E+00   0.000000E+00   0.000000E+00   0.000000E+00   0.000000E+00   0.000000E+00   0.000000E+00   0.000000E+00   0.000000E+00   0.000000E+00   0.000000E+00   0.000000E+00
   4.000000E-05   4.000000E-05   4.000000E-05   4.000000E-05   4.000000E-05   4.000000E-05   4.000000E-05   4.000000E-05   4.000000E-05   4.000000E-05   4.000000E-05   4.000000E-05   4.000000E-05   4.000000E-05   4.000000E-05   0.000000E+00   0.000000E+00   0.000000E+00   0.000000E+00   0.000000E+00   0.000000E+00   0.000000E+00   0.000000E+00   0.000000E+00   0.000000E+00   0.000000E+00   0.000000E+00   0.000000E+00   0.000000E+00   0.000000E+00   0.000000E+00   0.000000E+00   0.000000E+00   0.000000E+00   0.000000E+00   0.000000E+00   0.000000E+00   0.000000E+00   0.000000E+00   0.000000E+00   0.000000E+00   0.000000E+00   0.000000E+00   0.000000E+00   0.000000E+00   0.000000E+00   0.000000E+00   0.000000E+00   0.000000E+00   0.000000E+00
   4.000000E-05   4.000000E-05   4.000000E-05   4.000000E-05   4.000000E-05   4.000000E-05   4.000000E-05   4.000000E-05   4.000000E-05   4.000000E-05   4.000000E-05   4.000000E-05   4.000000E-05   4.000000E-05   4.000000E-05   0.000000E+00   0.000000E+00   0.000000E+00   0.000000E+00   0.000000E+00   0.000000E+00   0.000000E+00   0.000000E+00   0.000000E+00   0.000000E+00   0.000000E+00   0.000000E+00   0.000000E+00   0.000000E+00   0.000000E+00   0.000000E+00   0.000000E+00   0.000000E+00   0.000000E+00   0.000000E+00   0.000000E+00   0.000000E+00   0.000000E+00   0.000000E+00   0.000000E+00   0.000000E+00   0.000000E+00   0.000000E+00   0.000000E+00   0.000000E+00   0.000000E+00   0.000000E+00   0.000000E+00   0.000000E+00   0.000000E+00
   4.000000E-05   4.000000E-05   4.000000E-05   4.000000E-05   4.000000E-05   4.000000E-05   4.000000E-05   4.000000E-05   4.000000E-05   4.000000E-05   4.000000E-05   4.000000E-05   4.000000E-05   4.000000E-05   4.000000E-05   0.000000E+00   0.000000E+00   0.000000E+00   0.000000E+00   0.000000E+00   0.000000E+00   0.000000E+00   0.000000E+00   0.000000E+00   0.000000E+00   0.000000E+00   0.000000E+00   0.000000E+00   0.000000E+00   0.000000E+00   0.000000E+00   0.000000E+00   0.000000E+00   0.000000E+00   0.000000E+00   0.000000E+00   0.000000E+00   0.000000E+00   0.000000E+00   0.000000E+00   0.000000E+00   0.000000E+00   0.000000E+00   0.000000E+00   0.000000E+00   0.000000E+00   0.000000E+00   0.000000E+00   0.000000E+00   0.000000E+00
   4.000000E-05   4.000000E-05   4.000000E-05   4.000000E-05   4.000000E-05   4.000000E-05   4.000000E-05   4.000000E-05   4.000000E-05   4.000000E-05   4.000000E-05   4.000000E-05   4.000000E-05   4.000000E-05   4.000000E-05   0.000000E+00   0.000000E+00   0.000000E+00   0.000000E+00   0.000000E+00   0.000000E+00   0.000000E+00   0.000000E+00   0.000000E+00   0.000000E+00   0.000000E+00   0.000000E+00   0.000000E+00   0.000000E+00   0.000000E+00   0.000000E+00   0.000000E+00   0.000000E+00   0.000000E+00   0.000000E+00   0.000000E+00   0.000000E+00   0.000000E+00   0.000000E+00   0.000000E+00   0.000000E+00   0.000000E+00   0.000000E+00   0.000000E+00   0.000000E+00   0.000000E+00   0.000000E+00   0.000000E+00   0.000000E+00   0.000000E+00
   4.000000E-05   4.000000E-05   4.000000E-05   4.000000E-05   4.000000E-05   4.000000E-05   4.000000E-05   4.000000E-05   4.000000E-05   4.000000E-05   4.000000E-05   4.000000E-05   4.000000E-05   4.000000E-05   4.000000E-05   0.000000E+00   0.000000E+00   0.000000E+00   0.000000E+00   0.000000E+00   0.000000E+00   0.000000E+00   0.000000E+00   0.000000E+00   0.000000E+00   0.000000E+00   0.000000E+00   0.000000E+00   0.000000E+00   0.000000E+00   0.000000E+00   0.000000E+00   0.000000E+00   0.000000E+00   0.000000E+00   0.000000E+00   0.000000E+00   0.000000E+00   0.000000E+00   0.000000E+00   0.000000E+00   0.000000E+00   0.000000E+00   0.000000E+00   0.000000E+00   0.000000E+00   0.000000E+00   0.000000E+00   0.000000E+00   0.000000E+00
   4.000000E-05   4.000000E-05   4.000000E-05   4.000000E-05   4.000000E-05   4.000000E-05   4.000000E-05   4.000000E-05   4.000000E-05   4.000000E-05   4.000000E-05   4.000000E-05   4.000000E-05   4.000000E-05   4.000000E-05   0.000000E+00   0.000000E+00   0.000000E+00   0.000000E+00   0.000000E+00   0.000000E+00   0.000000E+00   0.000000E+00   0.000000E+00   0.000000E+00   0.000000E+00   0.000000E+00   0.000000E+00   0.000000E+00   0.000000E+00   0.000000E+00   0.000000E+00   0.000000E+00   0.000000E+00   0.000000E+00   0.000000E+00   0.000000E+00   0.000000E+00   0.000000E+00   0.000000E+00   0.000000E+00   0.000000E+00   0.000000E+00   0.000000E+00   0.000000E+00   0.000000E+00   0.000000E+00   0.000000E+00   0.000000E+00   0.000000E+00
   4.000000E-05   4.000000E-05   4.000000E-05   4.000000E-05   4.000000E-05   4.000000E-05   4.000000E-05   4.000000E-05   4.000000E-05   4.000000E-05   4.000000E-05   4.000000E-05   4.000000E-05   4.000000E-05   4.000000E-05   0.000000E+00   0.000000E+00   0.000000E+00   0.000000E+00   0.000000E+00   0.000000E+00   0.000000E+00   0.000000E+00   0.000000E+00   0.000000E+00   0.000000E+00   0.000000E+00   0.000000E+00   0.000000E+00   0.000000E+00   0.000000E+00   0.000000E+00   0.000000E+00   0.000000E+00   0.000000E+00   0.000000E+00   0.000000E+00   0.000000E+00   0.000000E+00   0.000000E+00   0.000000E+00   0.000000E+00   0.000000E+00   0.000000E+00   0.000000E+00   0.000000E+00   0.000000E+00   0.000000E+00   0.000000E+00   0.000000E+00
   4.000000E-05   4.000000E-05   4.000000E-05   4.000000E-05   4.000000E-05   4.000000E-05   4.000000E-05   4.000000E-05   4.000000E-05   4.000000E-05   4.000000E-05   4.000000E-05   4.000000E-05   4.000000E-05   4.000000E-05   0.000000E+00   0.000000E+00   0.000000E+00   0.000000E+00   0.000000E+00   0.000000E+00   0.000000E+00   0.000000E+00   0.000000E+00   0.000000E+00   0.000000E+00   0.000000E+00   0.000000E+00   0.000000E+00   0.000000E+00   0.000000E+00   0.000000E+00   0.000000E+00   0.000000E+00   0.000000E+00   0.000000E+00   0.000000E+00   0.000000E+00   0.000000E+00   0.000000E+00   0.000000E+00   0.000000E+00   0.000000E+00   0.000000E+00   0.000000E+00   0.000000E+00   0.000000E+00   0.000000E+00   0.000000E+00   0.000000E+00
   4.000000E-05   4.000000E-05   4.000000E-05   4.000000E-05   4.000000E-05   4.000000E-05   4.000000E-05   4.000000E-05   4.000000E-05   4.000000E-05   4.000000E-05   4.000000E-05   4.000000E-05   4.000000E-05   4.000000E-05   0.000000E+00   0.000000E+00   0.000000E+00   0.000000E+00   0.000000E+00   0.000000E+00   0.000000E+00   0.000000E+00   0.000000E+00   0.000000E+00   0.000000E+00   0.000000E+00   0.000000E+00   0.000000E+00   0.000000E+00   0.000000E+00   0.000000E+00   0.000000E+00   0.000000E+00   0.000000E+00   0.000000E+00   0.000000E+00   0.000000E+00   0.000000E+00   0.000000E+00   0.000000E+00   0.000000E+00   0.000000E+00   0.000000E+00   0.000000E+00   0.000000E+00   0.000000E+00   0.000000E+00   0.000000E+00   0.000000E+00
   4.000000E-05   4.000000E-05   4.000000E-05   4.000000E-05   4.000000E-05   4.000000E-05   4.000000E-05   4.000000E-05   4.000000E-05   4.000000E-05   4.000000E-05   4.000000E-05   4.000000E-05   4.000000E-05   4.000000E-05   0.000000E+00   0.000000E+00   0.000000E+00   0.000000E+00   0.000000E+00   0.000000E+00   0.000000E+00   0.000000E+00   0.000000E+00   0.000000E+00   0.000000E+00   0.000000E+00   0.000000E+00   0.000000E+00   0.000000E+00   0.000000E+00   0.000000E+00   0.000000E+00   0.000000E+00   0.000000E+00   0.000000E+00   0.000000E+00   0.000000E+00   0.000000E+00   0.000000E+00   0.000000E+00   0.000000E+00   0.000000E+00   0.000000E+00   0.000000E+00   0.000000E+00   0.000000E+00   0.000000E+00   0.000000E+00   0.000000E+00
   4.000000E-05   4.000000E-05   4.000000E-05   4.000000E-05   4.000000E-05   4.000000E-05   4.000000E-05   4.000000E-05   4.000000E-05   4.000000E-05   4.000000E-05   4.000000E-05   4.000000E-05   4.000000E-05   4.000000E-05   0.000000E+00   0.000000E+00   0.000000E+00   0.000000E+00   0.000000E+00   0.000000E+00   0.000000E+00   0.000000E+00   0.000000E+00   0.000000E+00   0.000000E+00   0.000000E+00   0.000000E+00   0.000000E+00   0.000000E+00   0.000000E+00   0.000000E+00   0.000000E+00   0.000000E+00   0.000000E+00   0.000000E+00   0.000000E+00   0.000000E+00   0.000000E+00   0.000000E+00   0.000000E+00   0.000000E+00   0.000000E+00   0.000000E+00   0.000000E+00   0.000000E+00   0.000000E+00   0.000000E+00   0.000000E+00   0.000000E+00
   4.000000E-05   4.000000E-05   4.000000E-05   4.000000E-05   4.000000E-05   4.000000E-05   4.000000E-05   4.000000E-05   4.000000E-05   4.000000E-05   4.000000E-05   4.000000E-05   4.000000E-05   4.000000E-05   4.000000E-05   0.000000E+00   0.000000E+00   0.000000E+00   0.000000E+00   0.000000E+00   2.500000E-04   2.500000E-04   2.500000E-04   2.500000E-04   2.500000E-04   0.000000E+00   0.000000E+00   0.000000E+00   0.000000E+00   0.000000E+00   0.000000E+00   0.000000E+00   0.000000E+00   0.000000E+00   0.000000E+00   0.000000E+00   0.000000E+00   0.000000E+00   0.000000E+00   0.000000E+00   0.000000E+00   0.000000E+00   0.000000E+00   0.000000E+00   0.000000E+00   0.000000E+00   0.000000E+00   0.000000E+00   0.000000E+00   0.000000E+00
   4.000000E-05   4.000000E-05   4.000000E-05   4.000000E-05   4.000000E-05   4.000000E-05   4.000000E-05   4.000000E-05   4.000000E-05   4.000000E-05   4.000000E-05   4.000000E-05   4.000000E-05   4.000000E-05   4.000000E-05   0.000000E+00   0.000000E+00   0.000000E+00   0.000000E+00   0.000000E+00   2.500000E-04   2.500000E-04   2.500000E-04   2.500000E-04   2.500000E-04   0.000000E+00   0.000000E+00   0.000000E+00   0.000000E+00   0.000000E+00   0.000000E+00   0.000000E+00   0.000000E+00   0.000000E+00   0.000000E+00   0.000000E+00   0.000000E+00   0.000000E+00   0.000000E+00   0.000000E+00   0.000000E+00   0.000000E+00   0.000000E+00   0.000000E+00   0.000000E+00   0.000000E+00   0.000000E+00   0.000000E+00   0.000000E+00   0.000000E+00
   4.000000E-05   4.000000E-05   4.000000E-05   4.000000E-05   4.000000E-05   4.000000E-05   4.000000E-05   4.000000E-05   4.000000E-05   4.000000E-05   4.000000E-05   4.000000E-05   4.000000E-05   4.000000E-05   4.000000E-05   0.000000E+00   0.000000E+00   0.000000E+00   0.000000E+00   0.000000E+00   2.500000E-04   2.500000E-04   2.500000E-04   2.500000E-04   2.500000E-04   0.000000E+00   0.000000E+00   0.000000E+00   0.000000E+00   0.000000E+00   0.000000E+00   0.000000E+00   0.000000E+00   0.000000E+00   0.000000E+00   0.000000E+00   0.000000E+00   0.000000E+00   0.000000E+00   0.000000E+00   0.000000E+00   0.000000E+00   0.000000E+00   0.000000E+00   0.000000E+00   0.000000E+00   0.000000E+00   0.000000E+00   0.000000E+00   0.000000E+00
   4.000000E-05   4.000000E-05   4.000000E-05   4.000000E-05   4.000000E-05   4.000000E-05   4.000000E-05   4.000000E-05   4.000000E-05   4.000000E-05   4.000000E-05   4.000000E-05   4.000000E-05   4.000000E-05   4.000000E-05   0.000000E+00   0.000000E+00   0.000000E+00   0.000000E+00   0.000000E+00   2.500000E-04   2.500000E-04   2.500000E-04   2.500000E-04   2.500000E-04   0.000000E+00   0.000000E+00   0.000000E+00   0.000000E+00   0.000000E+00   0.000000E+00   0.000000E+00   0.000000E+00   0.000000E+00   0.000000E+00   0.000000E+00   0.000000E+00   0.000000E+00   0.000000E+00   0.000000E+00   0.000000E+00   0.000000E+00   0.000000E+00   0.000000E+00   0.000000E+00   0.000000E+00   0.000000E+00   0.000000E+00   0.000000E+00   0.000000E+00
   4.000000E-05   4.000000E-05   4.000000E-05   4.000000E-05   4.000000E-05   4.000000E-05   4.000000E-05   4.000000E-05   4.000000E-05   4.000000E-05   4.000000E-05   4.000000E-05   4.000000E-05   4.000000E-05   4.000000E-05   0.000000E+00   0.000000E+00   0.000000E+00   0.000000E+00   0.000000E+00   2.500000E-04   2.500000E-04   2.500000E-04   2.500000E-04   2.500000E-04   0.000000E+00   0.000000E+00   0.000000E+00   0.000000E+00   0.000000E+00   0.000000E+00   0.000000E+00   0.000000E+00   0.000000E+00   0.000000E+00   0.000000E+00   0.000000E+00   0.000000E+00   0.000000E+00   0.000000E+00   0.000000E+00   0.000000E+00   0.000000E+00   0.000000E+00   0.000000E+00   0.000000E+00   0.000000E+00   0.000000E+00   0.000000E+00   0.000000E+00
   4.000000E-05   4.000000E-05   4.000000E-05   4.000000E-05   4.000000E-05   4.000000E-05   4.000000E-05   4.000000E-05   4.000000E-05   4.000000E-05   4.000000E-05   4.000000E-05   4.000000E-05   4.000000E-05   4.000000E-05   0.000000E+00   0.000000E+00   0.000000E+00   0.000000E+00   0.000000E+00   0.000000E+00   0.000000E+00   0.000000E+00   0.000000E+00   0.000000E+00   0.000000E+00   0.000000E+00   0.000000E+00   0.000000E+00   0.000000E+00   0.000000E+00   0.000000E+00   0.000000E+00   0.000000E+00   0.000000E+00   0.000000E+00   0.000000E+00   0.000000E+00   0.000000E+00   0.000000E+00   0.000000E+00   0.000000E+00   0.000000E+00   0.000000E+00   0.000000E+00   0.000000E+00   0.000000E+00   0.000000E+00   0.000000E+00   0.000000E+00
   4.000000E-05   4.000000E-05   4.000000E-05   4.000000E-05   4.000000E-05   4.000000E-05   4.000000E-05   4.000000E-05   4.000000E-05   4.000000E-05   4.000000E-05   4.000000E-05   4.000000E-05   4.000000E-05   4.000000E-05   0.000000E+00   0.000000E+00   0.000000E+00   0.000000E+00   0.000000E+00   0.000000E+00   0.000000E+00   0.000000E+00   0.000000E+00   0.000000E+00   0.000000E+00   0.000000E+00   0.000000E+00   0.000000E+00   0.000000E+00   0.000000E+00   0.000000E+00   0.000000E+00   0.000000E+00   0.000000E+00   0.000000E+00   0.000000E+00   0.000000E+00   0.000000E+00   0.000000E+00   0.000000E+00   0.000000E+00   0.000000E+00   0.000000E+00   0.000000E+00   0.000000E+00   0.000000E+00   0.000000E+00   0.000000E+00   0.000000E+00
   4.000000E-05   4.000000E-05   4.000000E-05   4.000000E-05   4.000000E-05   4.000000E-05   4.000000E-05   4.000000E-05   4.000000E-05   4.000000E-05   4.000000E-05   4.000000E-05   4.000000E-05   4.000000E-05   4.000000E-05   0.000000E+00   0.000000E+00   0.000000E+00   0.000000E+00   0.000000E+00   0.000000E+00   0.000000E+00   0.000000E+00   0.000000E+00   0.000000E+00   0.000000E+00   0.000000E+00   0.000000E+00   0.000000E+00   0.000000E+00   0.000000E+00   0.000000E+00   0.000000E+00   0.000000E+00   0.000000E+00   0.000000E+00   0.000000E+00   0.000000E+00   0.000000E+00   0.000000E+00   0.000000E+00   0.000000E+00   0.000000E+00   0.000000E+00   0.000000E+00   0.000000E+00   0.000000E+00   0.000000E+00   0.000000E+00   0.000000E+00
   4.000000E-05   4.000000E-05   4.000000E-05   4.000000E-05   4.000000E-05   4.000000E-05   4.000000E-05   4.000000E-05   4.000000E-05   4.000000E-05   4.000000E-05   4.000000E-05   4.000000E-05   4.000000E-05   4.000000E-05   0.000000E+00   0.000000E+00   0.000000E+00   0.000000E+00   0.000000E+00   0.000000E+00   0.000000E+00   0.000000E+00   0.000000E+00   0.000000E+00   0.000000E+00   0.000000E+00   0.000000E+00   0.000000E+00   0.000000E+00   0.000000E+00   0.000000E+00   0.000000E+00   0.000000E+00   0.000000E+00   0.000000E+00   0.000000E+00   0.000000E+00   0.000000E+00   0.000000E+00   0.000000E+00   0.000000E+00   0.000000E+00   0.000000E+00   0.000000E+00   0.000000E+00   0.000000E+00   0.000000E+00   0.000000E+00   0.000000E+00