# Name file for MODPATH, generated by Flopy version 3.3.0.
MPBAS  86 BASE_preag_mp.mpbas
DIS  11 BASE_preag.dis
HEAD  88 BASE_preag.hds
BUDGET  89 BASE_preag.cbc
