# STR package for  MODFLOW-2005, generated by Flopy.
        48         1         0         0         0 86400.000        53        53
        48         0         0  # stress period 1
    1    26     2     1     0       0.0000000      98.5000000    1000.0000000      97.0000000      98.0000000 
    1    26     3     1     1       0.0000000      97.5000000    1000.0000000      96.0000000      97.0000000 
    1    26     4     1     2       0.0000000      96.5000000    1000.0000000      95.0000000      96.0000000 
    1    26     5     1     3       0.0000000      95.5000000    1000.0000000      94.0000000      95.0000000 
    1    26     6     1     4       0.0000000      94.5000000    1000.0000000      93.0000000      94.0000000 
    1    26     7     1     5       0.0000000      93.5000000    1000.0000000      92.0000000      93.0000000 
    1    26     8     1     6       0.0000000      92.5000000    1000.0000000      91.0000000      92.0000000 
    1    26     9     1     7       0.0000000      91.5000000    1000.0000000      90.0000000      91.0000000 
    1    26    10     1     8       0.0000000      90.5000000    1000.0000000      89.0000000      90.0000000 
    1    26    11     1     9       0.0000000      89.5000000    1000.0000000      88.0000000      89.0000000 
    1    26    12     1    10       0.0000000      88.5000000    1000.0000000      87.0000000      88.0000000 
    1    26    13     1    11       0.0000000      87.5000000    1000.0000000      86.0000000      87.0000000 
    1    26    14     1    12       0.0000000      86.5000000    1000.0000000      85.0000000      86.0000000 
    1    26    15     1    13       0.0000000      85.5000000    1000.0000000      84.0000000      85.0000000 
    1    26    16     1    14       0.0000000      84.5000000    1000.0000000      83.0000000      84.0000000 
    1    26    17     1    15       0.0000000      83.5000000    1000.0000000      82.0000000      83.0000000 
    1    26    18     1    16       0.0000000      82.5000000    1000.0000000      81.0000000      82.0000000 
    1    26    19     1    17       0.0000000      81.5000000    1000.0000000      80.0000000      81.0000000 
    1    26    20     1    18       0.0000000      80.5000000    1000.0000000      79.0000000      80.0000000 
    1    26    21     1    19       0.0000000      79.5000000    1000.0000000      78.0000000      79.0000000 
    1    26    22     1    20       0.0000000      78.5000000    1000.0000000      77.0000000      78.0000000 
    1    26    23     1    21       0.0000000      77.5000000    1000.0000000      76.0000000      77.0000000 
    1    26    24     1    22       0.0000000      76.5000000    1000.0000000      75.0000000      76.0000000 
    1    26    25     1    23       0.0000000      75.5000000    1000.0000000      74.0000000      75.0000000 
    1    26    26     1    24       0.0000000      75.4000015    1000.0000000      73.9000015      74.9000015 
    1    26    27     1    25       0.0000000      75.3000031    1000.0000000      73.8000031      74.8000031 
    1    26    28     1    26       0.0000000      75.1999969    1000.0000000      73.6999969      74.6999969 
    1    26    29     1    27       0.0000000      75.0999985    1000.0000000      73.5999985      74.5999985 
    1    26    30     1    28       0.0000000      75.0000000    1000.0000000      73.5000000      74.5000000 
    1    26    31     1    29       0.0000000      74.9000015    1000.0000000      73.4000015      74.4000015 
    1    26    32     1    30       0.0000000      74.8000031    1000.0000000      73.3000031      74.3000031 
    1    26    33     1    31       0.0000000      74.6999969    1000.0000000      73.1999969      74.1999969 
    1    26    34     1    32       0.0000000      74.5999985    1000.0000000      73.0999985      74.0999985 
    1    26    35     1    33       0.0000000      74.5000000    1000.0000000      73.0000000      74.0000000 
    1    26    36     1    34       0.0000000      74.4000015    1000.0000000      72.9000015      73.9000015 
    1    26    37     1    35       0.0000000      74.3000031    1000.0000000      72.8000031      73.8000031 
    1    26    38     1    36       0.0000000      74.1999969    1000.0000000      72.6999969      73.6999969 
    1    26    39     1    37       0.0000000      74.0999985    1000.0000000      72.5999985      73.5999985 
    1    26    40     1    38       0.0000000      74.0000000    1000.0000000      72.5000000      73.5000000 
    1    26    41     1    39       0.0000000      73.9000015    1000.0000000      72.4000015      73.4000015 
    1    26    42     1    40       0.0000000      73.8000031    1000.0000000      72.3000031      73.3000031 
    1    26    43     1    41       0.0000000      73.6999969    1000.0000000      72.1999969      73.1999969 
    1    26    44     1    42       0.0000000      73.5999985    1000.0000000      72.0999985      73.0999985 
    1    26    45     1    43       0.0000000      73.5000000    1000.0000000      72.0000000      73.0000000 
    1    26    46     1    44       0.0000000      73.4000015    1000.0000000      71.9000015      72.9000015 
    1    26    47     1    45       0.0000000      73.3000031    1000.0000000      71.8000031      72.8000031 
    1    26    48     1    46       0.0000000      73.1999969    1000.0000000      71.6999969      72.6999969 
    1    26    49     1    47       0.0000000      73.0999985    1000.0000000      71.5999985      72.5999985 
