# WEL package for  MODFLOW-2005, generated by Flopy.
        22         0 
        22         0 # stress period 1
         1        63        94       -189997.5
         1        74        69       -189997.5
         1        87        47       -110000.0
         1        97        61       -189997.5
         1       105        89       -189997.5
         1       127        57       -189997.5
         1       131        86       -225000.0
         1       140        86       -225000.0
         1       142        83       -225000.0
         1       145        89       -225000.0
         1       154        85       -225000.0
         1       155        59       -179953.2
         1       165        37       -189997.5
         1       172        55       -179953.2
         1       185        86       -179953.2
         1       200        92       -179953.2
         1       201        51       -179953.2
         1       201        79       -179953.2
         1       216        45       -179953.2
         1       221        93       -179953.2
         1       227        77       -179953.2
         1       244        92       -179953.2
