# STR package for  MODFLOW-2005, generated by Flopy.
309 1 0 0 0 86400.0 53 53 
       309         1         1  # stress period 1
1 53 77 1 0 18000.0 1639.1571044921875 3.5999999046325684 1583.1571044921875 1638.1571044921875 
1 54 77 1 1 18000.0 1638.1571044921875 3.5999999046325684 1582.1571044921875 1637.1571044921875 
1 54 76 1 2 18000.0 1637.1571044921875 3.5999999046325684 1581.1571044921875 1636.1571044921875 
1 55 76 1 3 18000.0 1636.1571044921875 3.5999999046325684 1580.1571044921875 1635.1571044921875 
1 55 75 1 4 18000.0 1635.1571044921875 3.5999999046325684 1579.1571044921875 1634.1571044921875 
1 56 75 1 5 18000.0 1634.1571044921875 3.5999999046325684 1578.1571044921875 1633.1571044921875 
1 57 75 1 6 18000.0 1633.1571044921875 3.5999999046325684 1577.1571044921875 1632.1571044921875 
1 58 75 1 7 18000.0 1632.1571044921875 3.5999999046325684 1576.1571044921875 1631.1571044921875 
1 59 75 1 8 18000.0 1631.1571044921875 3.5999999046325684 1575.1571044921875 1630.1571044921875 
1 60 75 1 9 18000.0 1630.1571044921875 3.5999999046325684 1574.1571044921875 1629.1571044921875 
1 61 75 1 10 18000.0 1629.1571044921875 3.5999999046325684 1573.1571044921875 1628.1571044921875 
1 61 74 1 11 18000.0 1626.701416015625 3.5999999046325684 1570.701416015625 1625.701416015625 
1 62 74 1 12 18000.0 1625.776611328125 3.5999999046325684 1569.776611328125 1624.776611328125 
1 63 74 1 13 18000.0 1624.4791259765625 3.5999999046325684 1568.4791259765625 1623.4791259765625 
1 64 74 1 14 18000.0 1623.7606201171875 3.5999999046325684 1567.7606201171875 1622.7606201171875 
1 64 75 1 15 18000.0 1622.280029296875 3.5999999046325684 1566.280029296875 1621.280029296875 
1 64 76 1 16 18000.0 1621.6632080078125 3.5999999046325684 1565.6632080078125 1620.6632080078125 
1 65 76 1 17 18000.0 1619.5933837890625 3.5999999046325684 1563.5933837890625 1618.5933837890625 
1 66 76 1 18 18000.0 1619.2547607421875 3.5999999046325684 1563.2547607421875 1618.2547607421875 
1 66 77 1 19 18000.0 1618.0693359375 3.5999999046325684 1562.0693359375 1617.0693359375 
1 67 77 1 20 18000.0 1617.3421630859375 3.5999999046325684 1561.3421630859375 1616.3421630859375 
1 68 77 1 21 18000.0 1616.5867919921875 3.5999999046325684 1560.5867919921875 1615.5867919921875 
1 68 78 1 22 18000.0 1615.5430908203125 3.5999999046325684 1559.5430908203125 1614.5430908203125 
1 68 79 1 23 18000.0 1614.020751953125 3.5999999046325684 1558.020751953125 1613.020751953125 
1 69 79 1 24 18000.0 1613.021728515625 3.5999999046325684 1557.021728515625 1612.021728515625 
1 69 80 1 25 18000.0 1612.0316162109375 3.5999999046325684 1556.0316162109375 1611.0316162109375 
1 69 81 1 26 18000.0 1610.5531005859375 3.5999999046325684 1554.5531005859375 1609.5531005859375 
1 70 81 1 27 18000.0 1610.140625 3.5999999046325684 1554.140625 1609.140625 
1 70 82 1 28 18000.0 1608.8240966796875 3.5999999046325684 1552.8240966796875 1607.8240966796875 
1 70 83 1 29 18000.0 1608.30029296875 3.5999999046325684 1552.30029296875 1607.30029296875 
1 71 83 1 30 18000.0 1607.7801513671875 3.5999999046325684 1551.7801513671875 1606.7801513671875 
1 72 83 1 31 18000.0 1606.763671875 3.5999999046325684 1550.763671875 1605.763671875 
1 72 84 1 32 18000.0 1606.2509765625 3.5999999046325684 1550.2509765625 1605.2509765625 
1 73 84 1 33 18000.0 1605.241943359375 3.5999999046325684 1549.241943359375 1604.241943359375 
1 74 84 1 34 18000.0 1604.7366943359375 3.5999999046325684 1548.7366943359375 1603.7366943359375 
1 75 84 1 35 18000.0 1603.735107421875 3.5999999046325684 1547.735107421875 1602.735107421875 
1 76 84 1 36 18000.0 1603.2371826171875 3.5999999046325684 1547.2371826171875 1602.2371826171875 
1 77 84 1 37 18000.0 1602.2430419921875 3.5999999046325684 1546.2430419921875 1601.2430419921875 
1 78 84 1 38 18000.0 1601.7525634765625 3.5999999046325684 1545.7525634765625 1600.7525634765625 
1 79 84 1 39 18000.0 1600.765869140625 3.5999999046325684 1544.765869140625 1599.765869140625 
1 79 83 1 40 18000.0 1600.2828369140625 3.5999999046325684 1544.2828369140625 1599.2828369140625 
1 80 83 1 41 18000.0 1599.3035888671875 3.5999999046325684 1543.3035888671875 1598.3035888671875 
1 81 83 1 42 18000.0 1598.8280029296875 3.5999999046325684 1542.8280029296875 1597.8280029296875 
1 82 83 1 43 18000.0 1597.8560791015625 3.5999999046325684 1541.8560791015625 1596.8560791015625 
1 83 83 1 44 18000.0 1597.387939453125 3.5999999046325684 1541.387939453125 1596.387939453125 
1 84 83 1 45 18000.0 1596.4234619140625 3.5999999046325684 1540.4234619140625 1595.4234619140625 
1 85 83 1 46 18000.0 1595.9627685546875 3.5999999046325684 1539.9627685546875 1594.9627685546875 
1 85 82 1 47 18000.0 1595.0057373046875 3.5999999046325684 1539.0057373046875 1594.0057373046875 
1 85 81 1 48 18000.0 1594.552490234375 3.5999999046325684 1538.552490234375 1593.552490234375 
1 85 80 1 49 18000.0 1593.6029052734375 3.5999999046325684 1537.6029052734375 1592.6029052734375 
1 86 80 1 50 18000.0 1593.156982421875 3.5999999046325684 1537.156982421875 1592.156982421875 
1 87 80 1 51 18000.0 1592.21484375 3.5999999046325684 1536.21484375 1591.21484375 
1 87 81 1 52 18000.0 1591.7763671875 3.5999999046325684 1535.7763671875 1590.7763671875 
1 88 81 1 53 18000.0 1590.8416748046875 3.5999999046325684 1534.8416748046875 1589.8416748046875 
1 88 82 1 54 18000.0 1590.41064453125 3.5999999046325684 1534.41064453125 1589.41064453125 
1 88 83 1 55 18000.0 1589.4832763671875 3.5999999046325684 1533.4832763671875 1588.4832763671875 
1 88 84 1 56 18000.0 1589.0596923828125 3.5999999046325684 1533.0596923828125 1588.0596923828125 
1 89 84 1 57 18000.0 1588.1397705078125 3.5999999046325684 1532.1397705078125 1587.1397705078125 
1 90 84 1 58 18000.0 1587.7236328125 3.5999999046325684 1531.7236328125 1586.7236328125 
1 90 83 1 59 18000.0 1586.8111572265625 3.5999999046325684 1530.8111572265625 1585.8111572265625 
1 90 82 1 60 18000.0 1586.4024658203125 3.5999999046325684 1530.4024658203125 1585.4024658203125 
1 90 81 1 61 18000.0 1585.4974365234375 3.5999999046325684 1529.4974365234375 1584.4974365234375 
1 91 81 1 62 18000.0 1585.0960693359375 3.5999999046325684 1529.0960693359375 1584.0960693359375 
1 91 80 1 63 18000.0 1584.198486328125 3.5999999046325684 1528.198486328125 1583.198486328125 
1 92 80 1 64 18000.0 1583.8045654296875 3.5999999046325684 1527.8045654296875 1582.8045654296875 
1 92 79 1 65 18000.0 1582.9144287109375 3.5999999046325684 1526.9144287109375 1581.9144287109375 
1 92 78 1 66 18000.0 1582.5279541015625 3.5999999046325684 1526.5279541015625 1581.5279541015625 
1 93 78 1 67 18000.0 1581.645263671875 3.5999999046325684 1525.645263671875 1580.645263671875 
1 93 77 1 68 18000.0 1581.2662353515625 3.5999999046325684 1525.2662353515625 1580.2662353515625 
1 93 76 1 69 18000.0 1580.890869140625 3.5999999046325684 1524.890869140625 1579.890869140625 
1 94 76 1 70 18000.0 1580.519287109375 3.5999999046325684 1524.519287109375 1579.519287109375 
1 95 76 1 71 18000.0 1580.1513671875 3.5999999046325684 1524.1513671875 1579.1513671875 
1 95 77 1 72 18000.0 1579.2872314453125 3.5999999046325684 1523.2872314453125 1578.2872314453125 
1 95 78 1 73 18000.0 1578.9267578125 3.5999999046325684 1522.9267578125 1577.9267578125 
1 95 79 1 74 18000.0 1578.0699462890625 3.5999999046325684 1522.0699462890625 1577.0699462890625 
1 95 80 1 75 18000.0 1577.7169189453125 3.5999999046325684 1521.7169189453125 1576.7169189453125 
1 96 80 1 76 18000.0 1576.86767578125 3.5999999046325684 1520.86767578125 1575.86767578125 
1 97 80 1 77 18000.0 1576.52197265625 3.5999999046325684 1520.52197265625 1575.52197265625 
1 97 79 1 78 18000.0 1575.6800537109375 3.5999999046325684 1519.6800537109375 1574.6800537109375 
1 98 79 1 79 18000.0 1575.163330078125 3.5999999046325684 1519.163330078125 1574.163330078125 
1 98 78 1 80 18000.0 1574.5670166015625 3.5999999046325684 1518.5670166015625 1573.5670166015625 
1 99 78 1 81 18000.0 1573.974365234375 3.5999999046325684 1517.974365234375 1572.974365234375 
1 99 77 1 82 18000.0 1573.3853759765625 3.5999999046325684 1517.3853759765625 1572.3853759765625 
1 100 77 1 83 18000.0 1572.8001708984375 3.5999999046325684 1516.8001708984375 1571.8001708984375 
1 100 76 1 84 18000.0 1572.2186279296875 3.5999999046325684 1516.2186279296875 1571.2186279296875 
1 100 75 1 85 18000.0 1571.6407470703125 3.5999999046325684 1515.6407470703125 1570.6407470703125 
1 101 75 1 86 18000.0 1571.0667724609375 3.5999999046325684 1515.0667724609375 1570.0667724609375 
1 101 74 1 87 18000.0 1570.496337890625 3.5999999046325684 1514.496337890625 1569.496337890625 
1 101 73 1 88 18000.0 1569.9296875 3.5999999046325684 1513.9296875 1568.9296875 
1 102 73 1 89 18000.0 1569.36669921875 3.5999999046325684 1513.36669921875 1568.36669921875 
1 103 73 1 90 18000.0 1568.8074951171875 3.5999999046325684 1512.8074951171875 1567.8074951171875 
1 104 73 1 91 18000.0 1568.251953125 3.5999999046325684 1512.251953125 1567.251953125 
1 104 74 1 92 18000.0 1567.7001953125 3.5999999046325684 1511.7001953125 1566.7001953125 
1 105 74 1 93 18000.0 1567.152099609375 3.5999999046325684 1511.152099609375 1566.152099609375 
1 105 75 1 94 18000.0 1566.607666015625 3.5999999046325684 1510.607666015625 1565.607666015625 
1 106 75 1 95 18000.0 1566.0670166015625 3.5999999046325684 1510.0670166015625 1565.0670166015625 
1 106 76 1 96 18000.0 1565.530029296875 3.5999999046325684 1509.530029296875 1564.530029296875 
1 107 76 1 97 18000.0 1564.996826171875 3.5999999046325684 1508.996826171875 1563.996826171875 
1 107 77 1 98 18000.0 1564.46728515625 3.5999999046325684 1508.46728515625 1563.46728515625 
1 107 78 1 99 18000.0 1563.94140625 3.5999999046325684 1507.94140625 1562.94140625 
1 108 78 1 100 18000.0 1563.4193115234375 3.5999999046325684 1507.4193115234375 1562.4193115234375 
1 108 79 1 101 18000.0 1562.90087890625 3.5999999046325684 1506.90087890625 1561.90087890625 
1 109 79 1 102 18000.0 1562.38623046875 3.5999999046325684 1506.38623046875 1561.38623046875 
1 110 79 1 103 18000.0 1561.875244140625 3.5999999046325684 1505.875244140625 1560.875244140625 
1 111 79 1 104 18000.0 1561.3680419921875 3.5999999046325684 1505.3680419921875 1560.3680419921875 
1 112 79 1 105 18000.0 1560.864501953125 3.5999999046325684 1504.864501953125 1559.864501953125 
1 113 79 1 106 18000.0 1560.36474609375 3.5999999046325684 1504.36474609375 1559.36474609375 
1 114 79 1 107 18000.0 1559.8685302734375 3.5999999046325684 1503.8685302734375 1558.8685302734375 
1 114 80 1 108 18000.0 1559.376220703125 3.5999999046325684 1503.376220703125 1558.376220703125 
1 115 80 1 109 18000.0 1558.887451171875 3.5999999046325684 1502.887451171875 1557.887451171875 
1 116 80 1 110 18000.0 1558.402587890625 3.5999999046325684 1502.402587890625 1557.402587890625 
1 116 79 1 111 18000.0 1557.9212646484375 3.5999999046325684 1501.9212646484375 1556.9212646484375 
1 117 79 1 112 18000.0 1557.4437255859375 3.5999999046325684 1501.4437255859375 1556.4437255859375 
1 118 79 1 113 18000.0 1556.969970703125 3.5999999046325684 1500.969970703125 1555.969970703125 
1 119 79 1 114 18000.0 1556.499755859375 3.5999999046325684 1500.499755859375 1555.499755859375 
1 120 79 1 115 18000.0 1556.033447265625 3.5999999046325684 1500.033447265625 1555.033447265625 
1 120 78 1 116 18000.0 1555.5706787109375 3.5999999046325684 1499.5706787109375 1554.5706787109375 
1 121 78 1 117 18000.0 1555.1116943359375 3.5999999046325684 1499.1116943359375 1554.1116943359375 
1 122 78 1 118 18000.0 1554.656494140625 3.5999999046325684 1498.656494140625 1553.656494140625 
1 123 78 1 119 18000.0 1554.2049560546875 3.5999999046325684 1498.2049560546875 1553.2049560546875 
1 123 77 1 120 18000.0 1553.757080078125 3.5999999046325684 1497.757080078125 1552.757080078125 
1 124 77 1 121 18000.0 1553.31298828125 3.5999999046325684 1497.31298828125 1552.31298828125 
1 125 77 1 122 18000.0 1552.87255859375 3.5999999046325684 1496.87255859375 1551.87255859375 
1 126 77 1 123 18000.0 1552.4359130859375 3.5999999046325684 1496.4359130859375 1551.4359130859375 
1 127 77 1 124 18000.0 1552.0029296875 3.5999999046325684 1496.0029296875 1551.0029296875 
1 127 78 1 125 18000.0 1551.5736083984375 3.5999999046325684 1495.5736083984375 1550.5736083984375 
1 128 78 1 126 18000.0 1551.1480712890625 3.5999999046325684 1495.1480712890625 1550.1480712890625 
1 129 78 1 127 18000.0 1550.726318359375 3.5999999046325684 1494.726318359375 1549.726318359375 
1 130 78 1 128 18000.0 1550.30810546875 3.5999999046325684 1494.30810546875 1549.30810546875 
1 131 78 1 129 18000.0 1549.8936767578125 3.5999999046325684 1493.8936767578125 1548.8936767578125 
1 132 78 1 130 18000.0 1549.4830322265625 3.5999999046325684 1493.4830322265625 1548.4830322265625 
1 133 78 1 131 18000.0 1549.0760498046875 3.5999999046325684 1493.0760498046875 1548.0760498046875 
1 133 77 1 132 18000.0 1548.6727294921875 3.5999999046325684 1492.6727294921875 1547.6727294921875 
1 134 77 1 133 18000.0 1548.273193359375 3.5999999046325684 1492.273193359375 1547.273193359375 
1 134 76 1 134 18000.0 1547.87744140625 3.5999999046325684 1491.87744140625 1546.87744140625 
1 135 76 1 135 18000.0 1547.4852294921875 3.5999999046325684 1491.4852294921875 1546.4852294921875 
1 136 76 1 136 18000.0 1547.0968017578125 3.5999999046325684 1491.0968017578125 1546.0968017578125 
1 137 76 1 137 18000.0 1546.712158203125 3.5999999046325684 1490.712158203125 1545.712158203125 
1 138 76 1 138 18000.0 1546.3311767578125 3.5999999046325684 1490.3311767578125 1545.3311767578125 
1 138 77 1 139 18000.0 1545.953857421875 3.5999999046325684 1489.953857421875 1544.953857421875 
1 139 77 1 140 18000.0 1545.3521728515625 3.5999999046325684 1489.3521728515625 1544.3521728515625 
1 140 77 1 141 18000.0 1544.7542724609375 3.5999999046325684 1488.7542724609375 1543.7542724609375 
1 140 78 1 142 18000.0 1544.1790771484375 3.5999999046325684 1488.1790771484375 1543.1790771484375 
1 141 78 1 143 18000.0 1543.6065673828125 3.5999999046325684 1487.6065673828125 1542.6065673828125 
1 142 78 1 144 18000.0 1543.0367431640625 3.5999999046325684 1487.0367431640625 1542.0367431640625 
1 143 78 1 145 18000.0 1542.4696044921875 3.5999999046325684 1486.4696044921875 1541.4696044921875 
1 143 77 1 146 18000.0 1541.904296875 3.5999999046325684 1485.904296875 1540.904296875 
1 143 76 1 147 18000.0 1541.340576171875 3.5999999046325684 1485.340576171875 1540.340576171875 
1 144 76 1 148 18000.0 1540.7786865234375 3.5999999046325684 1484.7786865234375 1539.7786865234375 
1 144 75 1 149 18000.0 1540.200439453125 3.5999999046325684 1484.200439453125 1539.200439453125 
1 145 75 1 150 18000.0 1539.82275390625 3.5999999046325684 1483.82275390625 1538.82275390625 
1 146 75 1 151 18000.0 1539.3519287109375 3.5999999046325684 1483.3519287109375 1538.3519287109375 
1 147 75 1 152 18000.0 1538.8848876953125 3.5999999046325684 1482.8848876953125 1537.8848876953125 
1 148 75 1 153 18000.0 1538.4215087890625 3.5999999046325684 1482.4215087890625 1537.4215087890625 
1 149 75 1 154 18000.0 1537.9617919921875 3.5999999046325684 1481.9617919921875 1536.9617919921875 
1 149 76 1 155 18000.0 1537.505859375 3.5999999046325684 1481.505859375 1536.505859375 
1 150 76 1 156 18000.0 1537.0535888671875 3.5999999046325684 1481.0535888671875 1536.0535888671875 
1 151 76 1 157 18000.0 1536.6051025390625 3.5999999046325684 1480.6051025390625 1535.6051025390625 
1 151 77 1 158 18000.0 1536.1602783203125 3.5999999046325684 1480.1602783203125 1535.1602783203125 
1 152 77 1 159 18000.0 1535.71923828125 3.5999999046325684 1479.71923828125 1534.71923828125 
1 153 77 1 160 18000.0 1535.2818603515625 3.5999999046325684 1479.2818603515625 1534.2818603515625 
1 154 77 1 161 18000.0 1534.84814453125 3.5999999046325684 1478.84814453125 1533.84814453125 
1 155 77 1 162 18000.0 1534.418212890625 3.5999999046325684 1478.418212890625 1533.418212890625 
1 156 78 1 163 18000.0 1533.991943359375 3.5999999046325684 1477.991943359375 1532.991943359375 
1 157 78 1 164 18000.0 1533.5694580078125 3.5999999046325684 1477.5694580078125 1532.5694580078125 
1 157 79 1 165 18000.0 1533.150634765625 3.5999999046325684 1477.150634765625 1532.150634765625 
1 158 79 1 166 18000.0 1532.83544921875 3.5999999046325684 1476.83544921875 1531.83544921875 
1 159 79 1 167 18000.0 1532.524169921875 3.5999999046325684 1476.524169921875 1531.524169921875 
1 159 80 1 168 18000.0 1532.2164306640625 3.5999999046325684 1476.2164306640625 1531.2164306640625 
1 160 80 1 169 18000.0 1531.9124755859375 3.5999999046325684 1475.9124755859375 1530.9124755859375 
1 161 80 1 170 18000.0 1531.6121826171875 3.5999999046325684 1475.6121826171875 1530.6121826171875 
1 162 80 1 171 18000.0 1531.315673828125 3.5999999046325684 1475.315673828125 1530.315673828125 
1 163 80 1 172 18000.0 1531.0228271484375 3.5999999046325684 1475.0228271484375 1530.0228271484375 
1 164 80 1 173 18000.0 1530.7337646484375 3.5999999046325684 1474.7337646484375 1529.7337646484375 
1 165 80 1 174 18000.0 1530.4483642578125 3.5999999046325684 1474.4483642578125 1529.4483642578125 
1 165 79 1 175 18000.0 1530.166748046875 3.5999999046325684 1474.166748046875 1529.166748046875 
1 165 78 1 176 18000.0 1529.888671875 3.5999999046325684 1473.888671875 1528.888671875 
1 165 77 1 177 18000.0 1529.614501953125 3.5999999046325684 1473.614501953125 1528.614501953125 
1 165 76 1 178 18000.0 1529.343994140625 3.5999999046325684 1473.343994140625 1528.343994140625 
1 165 75 1 179 18000.0 1529.0771484375 3.5999999046325684 1473.0771484375 1528.0771484375 
1 166 75 1 180 18000.0 1528.81396484375 3.5999999046325684 1472.81396484375 1527.81396484375 
1 167 75 1 181 18000.0 1528.5545654296875 3.5999999046325684 1472.5545654296875 1527.5545654296875 
1 167 76 1 182 18000.0 1528.2989501953125 3.5999999046325684 1472.2989501953125 1527.2989501953125 
1 167 77 1 183 18000.0 1528.0469970703125 3.5999999046325684 1472.0469970703125 1527.0469970703125 
1 168 77 1 184 18000.0 1527.7987060546875 3.5999999046325684 1471.7987060546875 1526.7987060546875 
1 169 77 1 185 18000.0 1527.5540771484375 3.5999999046325684 1471.5540771484375 1526.5540771484375 
1 169 76 1 186 18000.0 1527.11328125 3.5999999046325684 1471.11328125 1526.11328125 
1 169 75 1 187 18000.0 1526.6761474609375 3.5999999046325684 1470.6761474609375 1525.6761474609375 
1 170 75 1 188 18000.0 1526.2427978515625 3.5999999046325684 1470.2427978515625 1525.2427978515625 
1 171 75 1 189 18000.0 1525.8131103515625 3.5999999046325684 1469.8131103515625 1524.8131103515625 
1 172 75 1 190 18000.0 1525.3870849609375 3.5999999046325684 1469.3870849609375 1524.3870849609375 
1 173 75 1 191 18000.0 1524.96484375 3.5999999046325684 1468.96484375 1523.96484375 
1 173 74 1 192 18000.0 1524.5462646484375 3.5999999046325684 1468.5462646484375 1523.5462646484375 
1 173 73 1 193 18000.0 1524.1314697265625 3.5999999046325684 1468.1314697265625 1523.1314697265625 
1 174 73 1 194 18000.0 1523.7203369140625 3.5999999046325684 1467.7203369140625 1522.7203369140625 
1 175 73 1 195 18000.0 1523.31298828125 3.5999999046325684 1467.31298828125 1522.31298828125 
1 176 73 1 196 18000.0 1522.9093017578125 3.5999999046325684 1466.9093017578125 1521.9093017578125 
1 176 72 1 197 18000.0 1522.50927734375 3.5999999046325684 1466.50927734375 1521.50927734375 
1 177 72 1 198 18000.0 1522.113037109375 3.5999999046325684 1466.113037109375 1521.113037109375 
1 178 72 1 199 18000.0 1521.720458984375 3.5999999046325684 1465.720458984375 1520.720458984375 
1 179 72 1 200 18000.0 1521.33154296875 3.5999999046325684 1465.33154296875 1520.33154296875 
1 179 71 1 201 18000.0 1520.946533203125 3.5999999046325684 1464.946533203125 1519.946533203125 
1 180 71 1 202 18000.0 1520.5650634765625 3.5999999046325684 1464.5650634765625 1519.5650634765625 
1 181 71 1 203 18000.0 1520.1873779296875 3.5999999046325684 1464.1873779296875 1519.1873779296875 
1 182 71 1 204 18000.0 1519.8133544921875 3.5999999046325684 1463.8133544921875 1518.8133544921875 
1 182 70 1 205 18000.0 1519.443115234375 3.5999999046325684 1463.443115234375 1518.443115234375 
1 183 70 1 206 18000.0 1519.0765380859375 3.5999999046325684 1463.0765380859375 1518.0765380859375 
1 184 70 1 207 18000.0 1518.7137451171875 3.5999999046325684 1462.7137451171875 1517.7137451171875 
1 184 71 1 208 18000.0 1518.3546142578125 3.5999999046325684 1462.3546142578125 1517.3546142578125 
1 185 71 1 209 18000.0 1517.9991455078125 3.5999999046325684 1461.9991455078125 1516.9991455078125 
1 186 71 1 210 18000.0 1517.847412109375 3.5999999046325684 1461.847412109375 1516.847412109375 
1 186 70 1 211 18000.0 1517.699462890625 3.5999999046325684 1461.699462890625 1516.699462890625 
1 186 69 1 212 18000.0 1517.55517578125 3.5999999046325684 1461.55517578125 1516.55517578125 
1 187 69 1 213 18000.0 1517.41455078125 3.5999999046325684 1461.41455078125 1516.41455078125 
1 188 69 1 214 18000.0 1517.2777099609375 3.5999999046325684 1461.2777099609375 1516.2777099609375 
1 189 69 1 215 18000.0 1516.944580078125 3.5999999046325684 1460.944580078125 1515.944580078125 
1 190 69 1 216 18000.0 1516.815185546875 3.5999999046325684 1460.815185546875 1515.815185546875 
1 191 69 1 217 18000.0 1516.489501953125 3.5999999046325684 1460.489501953125 1515.489501953125 
1 191 68 1 218 18000.0 1516.16748046875 3.5999999046325684 1460.16748046875 1515.16748046875 
1 192 68 1 219 18000.0 1515.8492431640625 3.5999999046325684 1459.8492431640625 1514.8492431640625 
1 192 67 1 220 18000.0 1515.53466796875 3.5999999046325684 1459.53466796875 1514.53466796875 
1 193 67 1 221 18000.0 1515.2237548828125 3.5999999046325684 1459.2237548828125 1514.2237548828125 
1 194 67 1 222 18000.0 1514.9166259765625 3.5999999046325684 1458.9166259765625 1513.9166259765625 
1 195 67 1 223 18000.0 1514.813232421875 3.5999999046325684 1458.813232421875 1513.813232421875 
1 195 66 1 224 18000.0 1514.7135009765625 3.5999999046325684 1458.7135009765625 1513.7135009765625 
1 196 66 1 225 18000.0 1514.41748046875 3.5999999046325684 1458.41748046875 1513.41748046875 
1 197 66 1 226 18000.0 1514.125244140625 3.5999999046325684 1458.125244140625 1513.125244140625 
1 198 66 1 227 18000.0 1514.03662109375 3.5999999046325684 1458.03662109375 1513.03662109375 
1 198 65 1 228 18000.0 1513.7518310546875 3.5999999046325684 1457.7518310546875 1512.7518310546875 
1 199 65 1 229 18000.0 1513.4705810546875 3.5999999046325684 1457.4705810546875 1512.4705810546875 
1 200 65 1 230 18000.0 1513.1932373046875 3.5999999046325684 1457.1932373046875 1512.1932373046875 
1 200 64 1 231 18000.0 1512.91943359375 3.5999999046325684 1456.91943359375 1511.91943359375 
1 201 64 1 232 18000.0 1512.8494873046875 3.5999999046325684 1456.8494873046875 1511.8494873046875 
1 201 63 1 233 18000.0 1512.5831298828125 3.5999999046325684 1456.5831298828125 1511.5831298828125 
1 202 63 1 234 18000.0 1512.5206298828125 3.5999999046325684 1456.5206298828125 1511.5206298828125 
1 203 63 1 235 18000.0 1512.26171875 3.5999999046325684 1456.26171875 1511.26171875 
1 203 62 1 236 18000.0 1512.006591796875 3.5999999046325684 1456.006591796875 1511.006591796875 
1 204 62 1 237 18000.0 1511.955078125 3.5999999046325684 1455.955078125 1510.955078125 
1 205 62 1 238 18000.0 1511.7073974609375 3.5999999046325684 1455.7073974609375 1510.7073974609375 
1 206 62 1 239 18000.0 1511.46337890625 3.5999999046325684 1455.46337890625 1510.46337890625 
1 207 62 1 240 18000.0 1511.22314453125 3.5999999046325684 1455.22314453125 1510.22314453125 
1 208 62 1 241 18000.0 1510.986572265625 3.5999999046325684 1454.986572265625 1509.986572265625 
1 209 62 1 242 18000.0 1510.753662109375 3.5999999046325684 1454.753662109375 1509.753662109375 
1 209 61 1 243 18000.0 1510.5245361328125 3.5999999046325684 1454.5245361328125 1509.5245361328125 
1 210 61 1 244 18000.0 1510.299072265625 3.5999999046325684 1454.299072265625 1509.299072265625 
1 211 61 1 245 18000.0 1510.0772705078125 3.5999999046325684 1454.0772705078125 1509.0772705078125 
1 211 62 1 246 18000.0 1509.8592529296875 3.5999999046325684 1453.8592529296875 1508.8592529296875 
1 212 62 1 247 18000.0 1509.64501953125 3.5999999046325684 1453.64501953125 1508.64501953125 
1 213 62 1 248 18000.0 1509.4344482421875 3.5999999046325684 1453.4344482421875 1508.4344482421875 
1 214 62 1 249 18000.0 1509.2275390625 3.5999999046325684 1453.2275390625 1508.2275390625 
1 214 61 1 250 18000.0 1509.0244140625 3.5999999046325684 1453.0244140625 1508.0244140625 
1 215 61 1 251 18000.0 1508.824951171875 3.5999999046325684 1452.824951171875 1507.824951171875 
1 216 61 1 252 18000.0 1508.629150390625 3.5999999046325684 1452.629150390625 1507.629150390625 
1 217 61 1 253 18000.0 1508.4371337890625 3.5999999046325684 1452.4371337890625 1507.4371337890625 
1 218 61 1 254 18000.0 1508.2489013671875 3.5999999046325684 1452.2489013671875 1507.2489013671875 
1 218 62 1 255 18000.0 1508.064208984375 3.5999999046325684 1452.064208984375 1507.064208984375 
1 219 62 1 256 18000.0 1507.8834228515625 3.5999999046325684 1451.8834228515625 1506.8834228515625 
1 220 62 1 257 18000.0 1507.7061767578125 3.5999999046325684 1451.7061767578125 1506.7061767578125 
1 220 63 1 258 18000.0 1507.53271484375 3.5999999046325684 1451.53271484375 1506.53271484375 
1 220 64 1 259 18000.0 1507.363037109375 3.5999999046325684 1451.363037109375 1506.363037109375 
1 221 64 1 260 18000.0 1507.197021484375 3.5999999046325684 1451.197021484375 1506.197021484375 
1 221 65 1 261 18000.0 1507.03466796875 3.5999999046325684 1451.03466796875 1506.03466796875 
1 222 65 1 262 18000.0 1506.8760986328125 3.5999999046325684 1450.8760986328125 1505.8760986328125 
1 223 65 1 263 18000.0 1506.72119140625 3.5999999046325684 1450.72119140625 1505.72119140625 
1 223 64 1 264 18000.0 1506.570068359375 3.5999999046325684 1450.570068359375 1505.570068359375 
1 224 64 1 265 18000.0 1506.422607421875 3.5999999046325684 1450.422607421875 1505.422607421875 
1 225 64 1 266 18000.0 1506.27880859375 3.5999999046325684 1450.27880859375 1505.27880859375 
1 225 65 1 267 18000.0 1506.1387939453125 3.5999999046325684 1450.1387939453125 1505.1387939453125 
1 226 65 1 268 18000.0 1506.00244140625 3.5999999046325684 1450.00244140625 1505.00244140625 
1 227 65 1 269 18000.0 1505.869873046875 3.5999999046325684 1449.869873046875 1504.869873046875 
1 227 64 1 270 18000.0 1505.740966796875 3.5999999046325684 1449.740966796875 1504.740966796875 
1 227 63 1 271 18000.0 1505.6158447265625 3.5999999046325684 1449.6158447265625 1504.6158447265625 
1 228 63 1 272 18000.0 1505.494384765625 3.5999999046325684 1449.494384765625 1504.494384765625 
1 229 63 1 273 18000.0 1505.3765869140625 3.5999999046325684 1449.3765869140625 1504.3765869140625 
1 229 64 1 274 18000.0 1505.2625732421875 3.5999999046325684 1449.2625732421875 1504.2625732421875 
1 230 64 1 275 18000.0 1505.1522216796875 3.5999999046325684 1449.1522216796875 1504.1522216796875 
1 230 65 1 276 18000.0 1505.045654296875 3.5999999046325684 1449.045654296875 1504.045654296875 
1 231 65 1 277 18000.0 1504.9427490234375 3.5999999046325684 1448.9427490234375 1503.9427490234375 
1 232 65 1 278 18000.0 1504.843505859375 3.5999999046325684 1448.843505859375 1503.843505859375 
1 233 65 1 279 18000.0 1504.748046875 3.5999999046325684 1448.748046875 1503.748046875 
1 234 65 1 280 18000.0 1504.6563720703125 3.5999999046325684 1448.6563720703125 1503.6563720703125 
1 235 65 1 281 18000.0 1504.5682373046875 3.5999999046325684 1448.5682373046875 1503.5682373046875 
1 236 65 1 282 18000.0 1504.4840087890625 3.5999999046325684 1448.4840087890625 1503.4840087890625 
1 236 66 1 283 18000.0 1504.4033203125 3.5999999046325684 1448.4033203125 1503.4033203125 
1 237 66 1 284 18000.0 1504.326416015625 3.5999999046325684 1448.326416015625 1503.326416015625 
1 237 67 1 285 18000.0 1504.2532958984375 3.5999999046325684 1448.2532958984375 1503.2532958984375 
1 237 68 1 286 18000.0 1504.183837890625 3.5999999046325684 1448.183837890625 1503.183837890625 
1 237 69 1 287 18000.0 1504.1180419921875 3.5999999046325684 1448.1180419921875 1503.1180419921875 
1 238 69 1 288 18000.0 1504.0560302734375 3.5999999046325684 1448.0560302734375 1503.0560302734375 
1 239 69 1 289 18000.0 1503.797607421875 3.5999999046325684 1447.797607421875 1502.797607421875 
1 239 68 1 290 18000.0 1503.7430419921875 3.5999999046325684 1447.7430419921875 1502.7430419921875 
1 240 68 1 291 18000.0 1503.692138671875 3.5999999046325684 1447.692138671875 1502.692138671875 
1 241 68 1 292 18000.0 1503.6448974609375 3.5999999046325684 1447.6448974609375 1502.6448974609375 
1 242 68 1 293 18000.0 1503.6014404296875 3.5999999046325684 1447.6014404296875 1502.6014404296875 
1 243 68 1 294 18000.0 1503.5616455078125 3.5999999046325684 1447.5616455078125 1502.5616455078125 
1 244 68 1 295 18000.0 1503.525634765625 3.5999999046325684 1447.525634765625 1502.525634765625 
1 244 69 1 296 18000.0 1503.4932861328125 3.5999999046325684 1447.4932861328125 1502.4932861328125 
1 245 69 1 297 18000.0 1503.4647216796875 3.5999999046325684 1447.4647216796875 1502.4647216796875 
1 245 70 1 298 18000.0 1503.4398193359375 3.5999999046325684 1447.4398193359375 1502.4398193359375 
1 246 70 1 299 18000.0 1503.4185791015625 3.5999999046325684 1447.4185791015625 1502.4185791015625 
1 247 70 1 300 18000.0 1503.401123046875 3.5999999046325684 1447.401123046875 1502.401123046875 
1 247 69 1 301 18000.0 1503.3873291015625 3.5999999046325684 1447.3873291015625 1502.3873291015625 
1 247 68 1 302 18000.0 1503.3773193359375 3.5999999046325684 1447.3773193359375 1502.3773193359375 
1 247 67 1 303 18000.0 1503.3709716796875 3.5999999046325684 1447.3709716796875 1502.3709716796875 
1 248 67 1 304 18000.0 1503.3682861328125 3.5999999046325684 1447.3682861328125 1502.3682861328125 
1 248 66 1 305 18000.0 1503.369384765625 3.5999999046325684 1447.369384765625 1502.369384765625 
1 249 66 1 306 18000.0 1503.3741455078125 3.5999999046325684 1447.3741455078125 1502.3741455078125 
1 250 66 1 307 18000.0 1503.3826904296875 3.5999999046325684 1447.3826904296875 1502.3826904296875 