# WEL package for  MODFLOW-2005, generated by Flopy.
         2         0 
         2         0 # stress period 1
         1        36        26        -10000.0
         1        33        36        -12000.0
