# Name file for MODPATH, generated by Flopy version 3.3.4.
MPBAS  86 well_mp.mpbas
DIS  11 well.dis
HEAD  88 well.hds
BUDGET  89 well.cbc
