# WEL package for  MODFLOW-2005, generated by Flopy.
         2         0 
         2         0 # stress period 1
         1        33        23        -12500.0
         1        33        36        -12000.0
