# WEL package for  MODFLOW-2005, generated by Flopy.
       134         0 
       134         0 # stress period 1
         1        63        94       -390000.0
         1        74        69       -390000.0
         1        87        47      -2000000.0
         1        97        61       -390000.0
         1       105        89       -390000.0
         1       127        57       -390000.0
         2       143        83      -1100000.0
         2       145        89      -1100000.0
         2       149        85      -1100000.0
         1       155        59      -2200000.0
         1       165        37       -390000.0
         1       172        55      -2200000.0
         1       185        86      -2200000.0
         1       200        92      -2200000.0
         1       201        51       -390000.0
         1       201        79       -390000.0
         1       216        45      -2200000.0
         1       221        93      -2200000.0
         1       227        77      -2200000.0
         1       244        92      -2200000.0
         1       250        52          -240.0
         2       250        52          -240.0
         1       250        53          -240.0
         2       250        53          -240.0
         1       250        54          -240.0
         2       250        54          -240.0
         1       250        55          -240.0
         2       250        55          -240.0
         1       250        56          -240.0
         2       250        56          -240.0
         1       250        57          -240.0
         2       250        57          -240.0
         1       250        58          -240.0
         2       250        58          -240.0
         1       250        59          -240.0
         2       250        59          -240.0
         1       250        60          -240.0
         2       250        60          -240.0
         1       250        61          -240.0
         2       250        61          -240.0
         1       250        62          -240.0
         2       250        62          -240.0
         1       250        63          -240.0
         2       250        63          -240.0
         1       250        64          -240.0
         2       250        64          -240.0
         1       250        65          -240.0
         2       250        65          -240.0
         1       250        66          -240.0
         2       250        66          -240.0
         1       250        67          -240.0
         2       250        67          -240.0
         1       250        68          -240.0
         2       250        68          -240.0
         1       250        69          -240.0
         2       250        69          -240.0
         1       250        70          -240.0
         2       250        70          -240.0
         1       250        71          -240.0
         2       250        71          -240.0
         1       250        72          -240.0
         2       250        72          -240.0
         1       250        73          -240.0
         2       250        73          -240.0
         1       250        74          -240.0
         2       250        74          -240.0
         1       250        75          -240.0
         2       250        75          -240.0
         1       250        76          -240.0
         2       250        76          -240.0
         1       250        77          -240.0
         2       250        77          -240.0
         1       250        78          -240.0
         2       250        78          -240.0
         1       250        79          -240.0
         2       250        79          -240.0
         1       250        80          -240.0
         2       250        80          -240.0
         1       250        81          -240.0
         2       250        81          -240.0
         1       250        82          -240.0
         2       250        82          -240.0
         1       250        83          -240.0
         2       250        83          -240.0
         1       250        84          -240.0
         2       250        84          -240.0
         1       250        85          -240.0
         2       250        85          -240.0
         1       250        86          -240.0
         2       250        86          -240.0
         1       250        87          -240.0
         2       250        87          -240.0
         1       250        88          -240.0
         2       250        88          -240.0
         1       250        89          -240.0
         2       250        89          -240.0
         1       250        90          -240.0
         2       250        90          -240.0
         1       250        91          -240.0
         2       250        91          -240.0
         1       250        92          -240.0
         2       250        92          -240.0
         1       250        93          -240.0
         2       250        93          -240.0
         1       250        94          -240.0
         2       250        94          -240.0
         1       250        95          -240.0
         2       250        95          -240.0
         1       250        96          -240.0
         2       250        96          -240.0
         1       250        97          -240.0
         2       250        97          -240.0
         1       250        98          -240.0
         2       250        98          -240.0
         1       250        99          -240.0
         2       250        99          -240.0
         1       250       100          -240.0
         2       250       100          -240.0
         1       250       101          -240.0
         2       250       101          -240.0
         1       250       102          -240.0
         2       250       102          -240.0
         1       250       103          -240.0
         2       250       103          -240.0
         1       250       104          -240.0
         2       250       104          -240.0
         1       250       105          -240.0
         2       250       105          -240.0
         1       250       106          -240.0
         2       250       106          -240.0
         1       250       107          -240.0
         2       250       107          -240.0
         1       250       108          -240.0
         2       250       108          -240.0
