# WEL package for  MODFLOW-2005, generated by Flopy.
        39         0 
        39         0 # stress period 1
         2       250        61             0.0
         2       246        64             0.0
         2       241        62             0.0
         2       236        61             0.0
         2       231        56             0.0
         2       224        58             0.0
         2       213        56             0.0
         2       216        45             0.0
         2       201        51             0.0
         2       192        63             0.0
         1       180        65             0.0
         1       172        55             0.0
         1       155        59             0.0
         1       157        73             0.0
         1       141        71             0.0
         1       162        84             0.0
         1       170        81             0.0
         1       183        76             0.0
         1       195        72             0.0
         1       185        86             0.0
         1       201        79             0.0
         1       209        67             0.0
         1       205        69             0.0
         1       217        72             0.0
         1       227        70             0.0
         1       232        72             0.0
         1       238        73             0.0
         1       245        74             0.0
         1       245        79             0.0
         1       237        87             0.0
         1       244        92             0.0
         1       230        83             0.0
         1       215        80             0.0
         1       221        93             0.0
         1       200        92             0.0
         2       127        57             0.0
         2        89        57             0.0
         2        74        69             0.0
         2       135        86             0.0
