# WEL package for  MODFLOW-2005, generated by Flopy.
         2         0 
         2         0 # stress period 1
         1       151        66       -500000.0
         2       176        66       -500000.0
