# LPF package for  MODFLOW-2005, generated by Flopy.
        53    -1E+30         0  
         1         0
         0         0
   0.000000E+00   0.000000E+00
         0         0
         0         0
INTERNAL               1 (145E15.6) -1 #hk layer 1                    
   6.010000E+01   6.010000E+01   6.010000E+01   6.010000E+01   6.010000E+01   6.010000E+01   6.010000E+01   6.010000E+01   6.010000E+01   6.010000E+01   6.010000E+01   6.010000E+01   6.010000E+01   6.010000E+01   6.010000E+01   6.010000E+01   6.010000E+01   6.010000E+01   6.010000E+01   6.010000E+01   6.010000E+01   6.010000E+01   6.010000E+01   6.010000E+01   6.010000E+01   6.010000E+01   6.010000E+01   6.010000E+01   6.010000E+01   6.010000E+01   6.010000E+01   6.010000E+01   6.010000E+01   6.010000E+01   6.010000E+01   6.010000E+01   6.010000E+01   6.010000E+01   6.010000E+01   6.010000E+01   6.010000E+01   6.010000E+01   6.010000E+01   6.010000E+01   6.010000E+01   6.010000E+01   6.010000E+01   6.010000E+01   6.010000E+01   6.010000E+01   6.010000E+01   6.010000E+01   6.010000E+01   6.010000E+01   6.010000E+01   6.010000E+01   6.010000E+01   6.010000E+01   6.010000E+01   6.010000E+01   6.010000E+01   6.010000E+01   6.010000E+01   6.010000E+01   6.010000E+01   6.010000E+01   6.010000E+01   6.010000E+01   6.010000E+01   6.010000E+01   6.010000E+01   6.010000E+01   6.010000E+01   6.010000E+01   6.010000E+01   6.010000E+01   6.010000E+01   6.010000E+01   6.010000E+01   6.010000E+01   6.010000E+01   6.010000E+01   6.010000E+01   6.010000E+01   6.010000E+01   6.010000E+01   6.010000E+01   6.010000E+01   6.010000E+01   6.010000E+01   6.010000E+01   6.010000E+01   6.010000E+01   6.010000E+01   6.010000E+01   6.010000E+01   6.010000E+01   6.010000E+01   6.010000E+01   6.010000E+01   6.010000E+01   6.010000E+01   6.010000E+01   6.010000E+01   6.010000E+01   6.010000E+01   6.010000E+01   6.010000E+01   6.010000E+01   6.010000E+01   6.010000E+01   6.010000E+01   6.010000E+01   6.010000E+01   6.010000E+01   6.010000E+01   6.010000E+01   6.010000E+01   6.010000E+01   6.010000E+01   6.010000E+01   6.010000E+01   6.010000E+01   6.010000E+01   6.010000E+01   6.010000E+01   6.010000E+01   6.010000E+01   6.010000E+01   6.010000E+01   6.010000E+01   6.010000E+01   6.010000E+01   6.010000E+01   6.010000E+01   6.010000E+01   6.010000E+01   6.010000E+01   6.010000E+01   6.010000E+01   6.010000E+01   6.010000E+01   6.010000E+01   6.010000E+01   6.010000E+01
   6.010000E+01   6.010000E+01   6.010000E+01   6.010000E+01   6.010000E+01   6.010000E+01   6.010000E+01   6.010000E+01   6.010000E+01   6.010000E+01   6.010000E+01   6.010000E+01   6.010000E+01   6.010000E+01   6.010000E+01   6.010000E+01   6.010000E+01   6.010000E+01   6.010000E+01   6.010000E+01   6.010000E+01   6.010000E+01   6.010000E+01   6.010000E+01   6.010000E+01   6.010000E+01   6.010000E+01   6.010000E+01   6.010000E+01   6.010000E+01   6.010000E+01   6.010000E+01   6.010000E+01   6.010000E+01   6.010000E+01   6.010000E+01   6.010000E+01   6.010000E+01   6.010000E+01   6.010000E+01   6.010000E+01   6.010000E+01   6.010000E+01   6.010000E+01   6.010000E+01   6.010000E+01   6.010000E+01   6.010000E+01   6.010000E+01   6.010000E+01   6.010000E+01   6.010000E+01   6.010000E+01   6.010000E+01   6.010000E+01   6.010000E+01   6.010000E+01   6.010000E+01   6.010000E+01   6.010000E+01   6.010000E+01   6.010000E+01   6.010000E+01   6.010000E+01   6.010000E+01   6.010000E+01   6.010000E+01   6.010000E+01   6.010000E+01   6.010000E+01   6.010000E+01   6.010000E+01   6.010000E+01   6.010000E+01   6.010000E+01   6.010000E+01   6.010000E+01   6.010000E+01   6.010000E+01   6.010000E+01   6.010000E+01   6.010000E+01   6.010000E+01   6.010000E+01   6.010000E+01   6.010000E+01   6.010000E+01   6.010000E+01   6.010000E+01   6.010000E+01   6.010000E+01   6.010000E+01   6.010000E+01   6.010000E+01   6.010000E+01   6.010000E+01   6.010000E+01   6.010000E+01   6.010000E+01   6.010000E+01   6.010000E+01   6.010000E+01   6.010000E+01   6.010000E+01   6.010000E+01   6.010000E+01   6.010000E+01   6.010000E+01   6.010000E+01   6.010000E+01   6.010000E+01   6.010000E+01   6.010000E+01   6.010000E+01   6.010000E+01   6.010000E+01   6.010000E+01   6.010000E+01   6.010000E+01   6.010000E+01   6.010000E+01   6.010000E+01   6.010000E+01   6.010000E+01   6.010000E+01   6.010000E+01   6.010000E+01   6.010000E+01   6.010000E+01   6.010000E+01   6.010000E+01   6.010000E+01   6.010000E+01   6.010000E+01   6.010000E+01   6.010000E+01   6.010000E+01   6.010000E+01   6.010000E+01   6.010000E+01   6.010000E+01   6.010000E+01   6.010000E+01   6.010000E+01   6.010000E+01
   6.010000E+01   6.010000E+01   6.010000E+01   6.010000E+01   6.010000E+01   6.010000E+01   6.010000E+01   6.010000E+01   6.010000E+01   6.010000E+01   6.010000E+01   6.010000E+01   6.010000E+01   6.010000E+01   6.010000E+01   6.010000E+01   6.010000E+01   6.010000E+01   6.010000E+01   6.010000E+01   6.010000E+01   6.010000E+01   6.010000E+01   6.010000E+01   6.010000E+01   6.010000E+01   6.010000E+01   6.010000E+01   6.010000E+01   6.010000E+01   6.010000E+01   6.010000E+01   6.010000E+01   6.010000E+01   6.010000E+01   6.010000E+01   6.010000E+01   6.010000E+01   6.010000E+01   6.010000E+01   6.010000E+01   6.010000E+01   6.010000E+01   6.010000E+01   6.010000E+01   6.010000E+01   6.010000E+01   6.010000E+01   6.010000E+01   6.010000E+01   6.010000E+01   6.010000E+01   6.010000E+01   6.010000E+01   6.010000E+01   6.010000E+01   6.010000E+01   6.010000E+01   6.010000E+01   6.010000E+01   6.010000E+01   6.010000E+01   6.010000E+01   6.010000E+01   6.010000E+01   6.010000E+01   6.010000E+01   6.010000E+01   6.010000E+01   6.010000E+01   6.010000E+01   6.010000E+01   6.010000E+01   6.010000E+01   6.010000E+01   6.010000E+01   6.010000E+01   6.010000E+01   6.010000E+01   6.010000E+01   6.010000E+01   6.010000E+01   6.010000E+01   6.010000E+01   6.010000E+01   6.010000E+01   6.010000E+01   6.010000E+01   6.010000E+01   6.010000E+01   6.010000E+01   6.010000E+01   6.010000E+01   6.010000E+01   6.010000E+01   6.010000E+01   6.010000E+01   6.010000E+01   6.010000E+01   6.010000E+01   6.010000E+01   6.010000E+01   6.010000E+01   6.010000E+01   6.010000E+01   6.010000E+01   6.010000E+01   6.010000E+01   6.010000E+01   6.010000E+01   6.010000E+01   6.010000E+01   6.010000E+01   6.010000E+01   6.010000E+01   6.010000E+01   6.010000E+01   6.010000E+01   6.010000E+01   6.010000E+01   6.010000E+01   6.010000E+01   6.010000E+01   6.010000E+01   6.010000E+01   6.010000E+01   6.010000E+01   6.010000E+01   6.010000E+01   6.010000E+01   6.010000E+01   6.010000E+01   6.010000E+01   6.010000E+01   6.010000E+01   6.010000E+01   6.010000E+01   6.010000E+01   6.010000E+01   6.010000E+01   6.010000E+01   6.010000E+01   6.010000E+01   6.010000E+01   6.010000E+01
   6.010000E+01   6.010000E+01   6.010000E+01   6.010000E+01   6.010000E+01   6.010000E+01   6.010000E+01   6.010000E+01   6.010000E+01   6.010000E+01   6.010000E+01   6.010000E+01   6.010000E+01   6.010000E+01   6.010000E+01   6.010000E+01   6.010000E+01   6.010000E+01   6.010000E+01   6.010000E+01   6.010000E+01   6.010000E+01   6.010000E+01   6.010000E+01   6.010000E+01   6.010000E+01   6.010000E+01   6.010000E+01   6.010000E+01   6.010000E+01   6.010000E+01   6.010000E+01   6.010000E+01   6.010000E+01   6.010000E+01   6.010000E+01   6.010000E+01   6.010000E+01   6.010000E+01   6.010000E+01   6.010000E+01   6.010000E+01   6.010000E+01   6.010000E+01   6.010000E+01   6.010000E+01   6.010000E+01   6.010000E+01   6.010000E+01   6.010000E+01   6.010000E+01   6.010000E+01   6.010000E+01   6.010000E+01   6.010000E+01   6.010000E+01   6.010000E+01   6.010000E+01   6.010000E+01   6.010000E+01   6.010000E+01   6.010000E+01   6.010000E+01   6.010000E+01   6.010000E+01   6.010000E+01   6.010000E+01   6.010000E+01   6.010000E+01   6.010000E+01   6.010000E+01   6.010000E+01   6.010000E+01   6.010000E+01   6.010000E+01   6.010000E+01   6.010000E+01   6.010000E+01   6.010000E+01   6.010000E+01   6.010000E+01   6.010000E+01   6.010000E+01   6.010000E+01   6.010000E+01   6.010000E+01   6.010000E+01   6.010000E+01   6.010000E+01   6.010000E+01   6.010000E+01   6.010000E+01   6.010000E+01   6.010000E+01   6.010000E+01   6.010000E+01   6.010000E+01   6.010000E+01   6.010000E+01   6.010000E+01   6.010000E+01   6.010000E+01   6.010000E+01   6.010000E+01   6.010000E+01   6.010000E+01   6.010000E+01   6.010000E+01   6.010000E+01   6.010000E+01   6.010000E+01   6.010000E+01   6.010000E+01   6.010000E+01   6.010000E+01   6.010000E+01   6.010000E+01   6.010000E+01   6.010000E+01   6.010000E+01   6.010000E+01   6.010000E+01   6.010000E+01   6.010000E+01   6.010000E+01   6.010000E+01   6.010000E+01   6.010000E+01   6.010000E+01   6.010000E+01   6.010000E+01   6.010000E+01   6.010000E+01   6.010000E+01   6.010000E+01   6.010000E+01   6.010000E+01   6.010000E+01   6.010000E+01   6.010000E+01   6.010000E+01   6.010000E+01   6.010000E+01   6.010000E+01   6.010000E+01
   6.010000E+01   6.010000E+01   6.010000E+01   6.010000E+01   6.010000E+01   6.010000E+01   6.010000E+01   6.010000E+01   6.010000E+01   6.010000E+01   6.010000E+01   6.010000E+01   6.010000E+01   6.010000E+01   6.010000E+01   6.010000E+01   6.010000E+01   6.010000E+01   6.010000E+01   6.010000E+01   6.010000E+01   6.010000E+01   6.010000E+01   6.010000E+01   6.010000E+01   6.010000E+01   6.010000E+01   6.010000E+01   6.010000E+01   6.010000E+01   6.010000E+01   6.010000E+01   6.010000E+01   6.010000E+01   6.010000E+01   6.010000E+01   6.010000E+01   6.010000E+01   6.010000E+01   6.010000E+01   6.010000E+01   6.010000E+01   6.010000E+01   6.010000E+01   6.010000E+01   6.010000E+01   6.010000E+01   6.010000E+01   6.010000E+01   6.010000E+01   6.010000E+01   6.010000E+01   6.010000E+01   6.010000E+01   6.010000E+01   6.010000E+01   6.010000E+01   6.010000E+01   6.010000E+01   6.010000E+01   6.010000E+01   6.010000E+01   6.010000E+01   6.010000E+01   6.010000E+01   6.010000E+01   6.010000E+01   6.010000E+01   6.010000E+01   6.010000E+01   6.010000E+01   6.010000E+01   6.010000E+01   6.010000E+01   6.010000E+01   6.010000E+01   6.010000E+01   6.010000E+01   6.010000E+01   6.010000E+01   6.010000E+01   6.010000E+01   6.010000E+01   6.010000E+01   6.010000E+01   6.010000E+01   6.010000E+01   6.010000E+01   6.010000E+01   6.010000E+01   6.010000E+01   6.010000E+01   6.010000E+01   6.010000E+01   6.010000E+01   6.010000E+01   6.010000E+01   6.010000E+01   6.010000E+01   6.010000E+01   6.010000E+01   6.010000E+01   6.010000E+01   6.010000E+01   6.010000E+01   6.010000E+01   6.010000E+01   6.010000E+01   6.010000E+01   6.010000E+01   6.010000E+01   6.010000E+01   6.010000E+01   6.010000E+01   6.010000E+01   6.010000E+01   6.010000E+01   6.010000E+01   6.010000E+01   6.010000E+01   6.010000E+01   6.010000E+01   6.010000E+01   6.010000E+01   6.010000E+01   6.010000E+01   6.010000E+01   6.010000E+01   6.010000E+01   6.010000E+01   6.010000E+01   6.010000E+01   6.010000E+01   6.010000E+01   6.010000E+01   6.010000E+01   6.010000E+01   6.010000E+01   6.010000E+01   6.010000E+01   6.010000E+01   6.010000E+01   6.010000E+01   6.010000E+01   6.010000E+01
   6.010000E+01   6.010000E+01   6.010000E+01   6.010000E+01   6.010000E+01   6.010000E+01   6.010000E+01   6.010000E+01   6.010000E+01   6.010000E+01   6.010000E+01   6.010000E+01   6.010000E+01   6.010000E+01   6.010000E+01   6.010000E+01   6.010000E+01   6.010000E+01   6.010000E+01   6.010000E+01   6.010000E+01   6.010000E+01   6.010000E+01   6.010000E+01   6.010000E+01   6.010000E+01   6.010000E+01   6.010000E+01   6.010000E+01   6.010000E+01   6.010000E+01   6.010000E+01   6.010000E+01   6.010000E+01   6.010000E+01   6.010000E+01   6.010000E+01   6.010000E+01   6.010000E+01   6.010000E+01   6.010000E+01   6.010000E+01   6.010000E+01   6.010000E+01   6.010000E+01   6.010000E+01   6.010000E+01   6.010000E+01   6.010000E+01   6.010000E+01   6.010000E+01   6.010000E+01   6.010000E+01   6.010000E+01   6.010000E+01   6.010000E+01   6.010000E+01   6.010000E+01   6.010000E+01   6.010000E+01   6.010000E+01   6.010000E+01   6.010000E+01   6.010000E+01   6.010000E+01   6.010000E+01   6.010000E+01   6.010000E+01   6.010000E+01   6.010000E+01   6.010000E+01   6.010000E+01   6.010000E+01   6.010000E+01   6.010000E+01   6.010000E+01   6.010000E+01   6.010000E+01   6.010000E+01   6.010000E+01   6.010000E+01   6.010000E+01   6.010000E+01   6.010000E+01   6.010000E+01   6.010000E+01   6.010000E+01   6.010000E+01   6.010000E+01   6.010000E+01   6.010000E+01   6.010000E+01   6.010000E+01   6.010000E+01   6.010000E+01   6.010000E+01   6.010000E+01   6.010000E+01   6.010000E+01   6.010000E+01   6.010000E+01   6.010000E+01   6.010000E+01   6.010000E+01   6.010000E+01   6.010000E+01   6.010000E+01   6.010000E+01   6.010000E+01   6.010000E+01   6.010000E+01   6.010000E+01   6.010000E+01   6.010000E+01   6.010000E+01   6.010000E+01   6.010000E+01   6.010000E+01   6.010000E+01   6.010000E+01   6.010000E+01   6.010000E+01   6.010000E+01   6.010000E+01   6.010000E+01   6.010000E+01   6.010000E+01   6.010000E+01   6.010000E+01   6.010000E+01   6.010000E+01   6.010000E+01   6.010000E+01   6.010000E+01   6.010000E+01   6.010000E+01   6.010000E+01   6.010000E+01   6.010000E+01   6.010000E+01   6.010000E+01   6.010000E+01   6.010000E+01   6.010000E+01   6.010000E+01
   6.010000E+01   6.010000E+01   6.010000E+01   6.010000E+01   6.010000E+01   6.010000E+01   6.010000E+01   6.010000E+01   6.010000E+01   6.010000E+01   6.010000E+01   6.010000E+01   6.010000E+01   6.010000E+01   6.010000E+01   6.010000E+01   6.010000E+01   6.010000E+01   6.010000E+01   6.010000E+01   6.010000E+01   6.010000E+01   6.010000E+01   6.010000E+01   6.010000E+01   6.010000E+01   6.010000E+01   6.010000E+01   6.010000E+01   6.010000E+01   6.010000E+01   6.010000E+01   6.010000E+01   6.010000E+01   6.010000E+01   6.010000E+01   6.010000E+01   6.010000E+01   6.010000E+01   6.010000E+01   6.010000E+01   6.010000E+01   6.010000E+01   6.010000E+01   6.010000E+01   6.010000E+01   6.010000E+01   6.010000E+01   6.010000E+01   6.010000E+01   6.010000E+01   6.010000E+01   6.010000E+01   6.010000E+01   6.010000E+01   6.010000E+01   6.010000E+01   6.010000E+01   6.010000E+01   6.010000E+01   6.010000E+01   6.010000E+01   6.010000E+01   6.010000E+01   6.010000E+01   6.010000E+01   6.010000E+01   6.010000E+01   6.010000E+01   6.010000E+01   6.010000E+01   6.010000E+01   6.010000E+01   6.010000E+01   6.010000E+01   6.010000E+01   6.010000E+01   6.010000E+01   6.010000E+01   6.010000E+01   6.010000E+01   6.010000E+01   6.010000E+01   6.010000E+01   6.010000E+01   6.010000E+01   6.010000E+01   6.010000E+01   6.010000E+01   6.010000E+01   6.010000E+01   6.010000E+01   6.010000E+01   6.010000E+01   6.010000E+01   6.010000E+01   6.010000E+01   6.010000E+01   6.010000E+01   6.010000E+01   6.010000E+01   6.010000E+01   6.010000E+01   6.010000E+01   6.010000E+01   6.010000E+01   6.010000E+01   6.010000E+01   6.010000E+01   6.010000E+01   6.010000E+01   6.010000E+01   6.010000E+01   6.010000E+01   6.010000E+01   6.010000E+01   6.010000E+01   6.010000E+01   6.010000E+01   6.010000E+01   6.010000E+01   6.010000E+01   6.010000E+01   6.010000E+01   6.010000E+01   6.010000E+01   6.010000E+01   6.010000E+01   6.010000E+01   6.010000E+01   6.010000E+01   6.010000E+01   6.010000E+01   6.010000E+01   6.010000E+01   6.010000E+01   6.010000E+01   6.010000E+01   6.010000E+01   6.010000E+01   6.010000E+01   6.010000E+01   6.010000E+01   6.010000E+01   6.010000E+01
   6.010000E+01   6.010000E+01   6.010000E+01   6.010000E+01   6.010000E+01   6.010000E+01   6.010000E+01   6.010000E+01   6.010000E+01   6.010000E+01   6.010000E+01   6.010000E+01   6.010000E+01   6.010000E+01   6.010000E+01   6.010000E+01   6.010000E+01   6.010000E+01   6.010000E+01   6.010000E+01   6.010000E+01   6.010000E+01   6.010000E+01   6.010000E+01   6.010000E+01   6.010000E+01   6.010000E+01   6.010000E+01   6.010000E+01   6.010000E+01   6.010000E+01   6.010000E+01   6.010000E+01   6.010000E+01   6.010000E+01   6.010000E+01   6.010000E+01   6.010000E+01   6.010000E+01   6.010000E+01   6.010000E+01   6.010000E+01   6.010000E+01   6.010000E+01   6.010000E+01   6.010000E+01   6.010000E+01   6.010000E+01   6.010000E+01   6.010000E+01   6.010000E+01   6.010000E+01   6.010000E+01   6.010000E+01   6.010000E+01   6.010000E+01   6.010000E+01   6.010000E+01   6.010000E+01   6.010000E+01   6.010000E+01   6.010000E+01   6.010000E+01   6.010000E+01   6.010000E+01   6.010000E+01   6.010000E+01   6.010000E+01   6.010000E+01   6.010000E+01   6.010000E+01   6.010000E+01   6.010000E+01   6.010000E+01   6.010000E+01   6.010000E+01   6.010000E+01   6.010000E+01   6.010000E+01   6.010000E+01   6.010000E+01   6.010000E+01   6.010000E+01   6.010000E+01   6.010000E+01   6.010000E+01   6.010000E+01   6.010000E+01   6.010000E+01   6.010000E+01   6.010000E+01   6.010000E+01   6.010000E+01   6.010000E+01   6.010000E+01   6.010000E+01   6.010000E+01   6.010000E+01   6.010000E+01   6.010000E+01   6.010000E+01   6.010000E+01   6.010000E+01   6.010000E+01   6.010000E+01   6.010000E+01   6.010000E+01   6.010000E+01   6.010000E+01   6.010000E+01   6.010000E+01   6.010000E+01   6.010000E+01   6.010000E+01   6.010000E+01   6.010000E+01   6.010000E+01   6.010000E+01   6.010000E+01   6.010000E+01   6.010000E+01   6.010000E+01   6.010000E+01   6.010000E+01   6.010000E+01   6.010000E+01   6.010000E+01   6.010000E+01   6.010000E+01   6.010000E+01   6.010000E+01   6.010000E+01   6.010000E+01   6.010000E+01   6.010000E+01   6.010000E+01   6.010000E+01   6.010000E+01   6.010000E+01   6.010000E+01   6.010000E+01   6.010000E+01   6.010000E+01   6.010000E+01   6.010000E+01
   6.010000E+01   6.010000E+01   6.010000E+01   6.010000E+01   6.010000E+01   6.010000E+01   6.010000E+01   6.010000E+01   6.010000E+01   6.010000E+01   6.010000E+01   6.010000E+01   6.010000E+01   6.010000E+01   6.010000E+01   6.010000E+01   6.010000E+01   6.010000E+01   6.010000E+01   6.010000E+01   6.010000E+01   6.010000E+01   6.010000E+01   6.010000E+01   6.010000E+01   6.010000E+01   6.010000E+01   6.010000E+01   6.010000E+01   6.010000E+01   6.010000E+01   6.010000E+01   6.010000E+01   6.010000E+01   6.010000E+01   6.010000E+01   6.010000E+01   6.010000E+01   6.010000E+01   6.010000E+01   6.010000E+01   6.010000E+01   6.010000E+01   6.010000E+01   6.010000E+01   6.010000E+01   6.010000E+01   6.010000E+01   6.010000E+01   6.010000E+01   6.010000E+01   6.010000E+01   6.010000E+01   6.010000E+01   6.010000E+01   6.010000E+01   6.010000E+01   6.010000E+01   6.010000E+01   6.010000E+01   6.010000E+01   6.010000E+01   6.010000E+01   6.010000E+01   6.010000E+01   6.010000E+01   6.010000E+01   6.010000E+01   6.010000E+01   6.010000E+01   6.010000E+01   6.010000E+01   6.010000E+01   6.010000E+01   6.010000E+01   6.010000E+01   6.010000E+01   6.010000E+01   6.010000E+01   6.010000E+01   6.010000E+01   6.010000E+01   6.010000E+01   6.010000E+01   6.010000E+01   6.010000E+01   6.010000E+01   6.010000E+01   6.010000E+01   6.010000E+01   6.010000E+01   6.010000E+01   6.010000E+01   6.010000E+01   6.010000E+01   6.010000E+01   6.010000E+01   6.010000E+01   6.010000E+01   6.010000E+01   6.010000E+01   6.010000E+01   6.010000E+01   6.010000E+01   6.010000E+01   6.010000E+01   6.010000E+01   6.010000E+01   6.010000E+01   6.010000E+01   6.010000E+01   6.010000E+01   6.010000E+01   6.010000E+01   6.010000E+01   6.010000E+01   6.010000E+01   6.010000E+01   6.010000E+01   6.010000E+01   6.010000E+01   6.010000E+01   6.010000E+01   6.010000E+01   6.010000E+01   6.010000E+01   6.010000E+01   6.010000E+01   6.010000E+01   6.010000E+01   6.010000E+01   6.010000E+01   6.010000E+01   6.010000E+01   6.010000E+01   6.010000E+01   6.010000E+01   6.010000E+01   6.010000E+01   6.010000E+01   6.010000E+01   6.010000E+01   6.010000E+01   6.010000E+01   6.010000E+01
   6.010000E+01   6.010000E+01   6.010000E+01   6.010000E+01   6.010000E+01   6.010000E+01   6.010000E+01   6.010000E+01   6.010000E+01   6.010000E+01   6.010000E+01   6.010000E+01   6.010000E+01   6.010000E+01   6.010000E+01   6.010000E+01   6.010000E+01   6.010000E+01   6.010000E+01   6.010000E+01   6.010000E+01   6.010000E+01   6.010000E+01   6.010000E+01   6.010000E+01   6.010000E+01   6.010000E+01   6.010000E+01   6.010000E+01   6.010000E+01   6.010000E+01   6.010000E+01   6.010000E+01   6.010000E+01   6.010000E+01   6.010000E+01   6.010000E+01   6.010000E+01   6.010000E+01   6.010000E+01   6.010000E+01   6.010000E+01   6.010000E+01   6.010000E+01   6.010000E+01   6.010000E+01   6.010000E+01   6.010000E+01   6.010000E+01   6.010000E+01   6.010000E+01   6.010000E+01   6.010000E+01   6.010000E+01   6.010000E+01   6.010000E+01   6.010000E+01   6.010000E+01   6.010000E+01   6.010000E+01   6.010000E+01   6.010000E+01   6.010000E+01   6.010000E+01   6.010000E+01   6.010000E+01   6.010000E+01   6.010000E+01   6.010000E+01   6.010000E+01   6.010000E+01   6.010000E+01   6.010000E+01   6.010000E+01   6.010000E+01   6.010000E+01   6.010000E+01   6.010000E+01   6.010000E+01   6.010000E+01   6.010000E+01   6.010000E+01   6.010000E+01   6.010000E+01   6.010000E+01   6.010000E+01   6.010000E+01   6.010000E+01   6.010000E+01   6.010000E+01   6.010000E+01   6.010000E+01   6.010000E+01   6.010000E+01   6.010000E+01   6.010000E+01   6.010000E+01   6.010000E+01   6.010000E+01   6.010000E+01   6.010000E+01   6.010000E+01   6.010000E+01   6.010000E+01   6.010000E+01   6.010000E+01   6.010000E+01   6.010000E+01   6.010000E+01   6.010000E+01   6.010000E+01   6.010000E+01   6.010000E+01   6.010000E+01   6.010000E+01   6.010000E+01   6.010000E+01   6.010000E+01   6.010000E+01   6.010000E+01   6.010000E+01   6.010000E+01   6.010000E+01   6.010000E+01   6.010000E+01   6.010000E+01   6.010000E+01   6.010000E+01   6.010000E+01   6.010000E+01   6.010000E+01   6.010000E+01   6.010000E+01   6.010000E+01   6.010000E+01   6.010000E+01   6.010000E+01   6.010000E+01   6.010000E+01   6.010000E+01   6.010000E+01   6.010000E+01   6.010000E+01   6.010000E+01   6.010000E+01
   6.010000E+01   6.010000E+01   6.010000E+01   6.010000E+01   6.010000E+01   6.010000E+01   6.010000E+01   6.010000E+01   6.010000E+01   6.010000E+01   6.010000E+01   6.010000E+01   6.010000E+01   6.010000E+01   6.010000E+01   6.010000E+01   6.010000E+01   6.010000E+01   6.010000E+01   6.010000E+01   6.010000E+01   6.010000E+01   6.010000E+01   6.010000E+01   6.010000E+01   6.010000E+01   6.010000E+01   6.010000E+01   6.010000E+01   6.010000E+01   6.010000E+01   6.010000E+01   6.010000E+01   6.010000E+01   6.010000E+01   6.010000E+01   6.010000E+01   6.010000E+01   6.010000E+01   6.010000E+01   6.010000E+01   6.010000E+01   6.010000E+01   6.010000E+01   6.010000E+01   6.010000E+01   6.010000E+01   6.010000E+01   6.010000E+01   6.010000E+01   6.010000E+01   6.010000E+01   6.010000E+01   6.010000E+01   6.010000E+01   6.010000E+01   6.010000E+01   6.010000E+01   6.010000E+01   6.010000E+01   6.010000E+01   6.010000E+01   6.010000E+01   6.010000E+01   6.010000E+01   6.010000E+01   6.010000E+01   6.010000E+01   6.010000E+01   6.010000E+01   6.010000E+01   6.010000E+01   6.010000E+01   6.010000E+01   6.010000E+01   6.010000E+01   6.010000E+01   6.010000E+01   6.010000E+01   6.010000E+01   6.010000E+01   6.010000E+01   6.010000E+01   6.010000E+01   6.010000E+01   6.010000E+01   6.010000E+01   6.010000E+01   6.010000E+01   6.010000E+01   6.010000E+01   6.010000E+01   6.010000E+01   6.010000E+01   6.010000E+01   6.010000E+01   6.010000E+01   6.010000E+01   6.010000E+01   6.010000E+01   6.010000E+01   6.010000E+01   6.010000E+01   6.010000E+01   6.010000E+01   6.010000E+01   6.010000E+01   6.010000E+01   6.010000E+01   6.010000E+01   6.010000E+01   6.010000E+01   6.010000E+01   6.010000E+01   6.010000E+01   6.010000E+01   6.010000E+01   6.010000E+01   6.010000E+01   6.010000E+01   6.010000E+01   6.010000E+01   6.010000E+01   6.010000E+01   6.010000E+01   6.010000E+01   6.010000E+01   6.010000E+01   6.010000E+01   6.010000E+01   6.010000E+01   6.010000E+01   6.010000E+01   6.010000E+01   6.010000E+01   6.010000E+01   6.010000E+01   6.010000E+01   6.010000E+01   6.010000E+01   6.010000E+01   6.010000E+01   6.010000E+01   6.010000E+01   6.010000E+01
   6.010000E+01   6.010000E+01   6.010000E+01   6.010000E+01   6.010000E+01   6.010000E+01   6.010000E+01   6.010000E+01   6.010000E+01   6.010000E+01   6.010000E+01   6.010000E+01   6.010000E+01   6.010000E+01   6.010000E+01   6.010000E+01   6.010000E+01   6.010000E+01   6.010000E+01   6.010000E+01   6.010000E+01   6.010000E+01   6.010000E+01   6.010000E+01   6.010000E+01   6.010000E+01   6.010000E+01   6.010000E+01   6.010000E+01   6.010000E+01   6.010000E+01   6.010000E+01   6.010000E+01   6.010000E+01   6.010000E+01   6.010000E+01   6.010000E+01   6.010000E+01   6.010000E+01   6.010000E+01   6.010000E+01   6.010000E+01   6.010000E+01   6.010000E+01   6.010000E+01   6.010000E+01   6.010000E+01   6.010000E+01   6.010000E+01   6.010000E+01   6.010000E+01   6.010000E+01   6.010000E+01   6.010000E+01   6.010000E+01   6.010000E+01   6.010000E+01   6.010000E+01   6.010000E+01   6.010000E+01   6.010000E+01   6.010000E+01   6.010000E+01   6.010000E+01   6.010000E+01   6.010000E+01   6.010000E+01   6.010000E+01   6.010000E+01   6.010000E+01   6.010000E+01   6.010000E+01   6.010000E+01   6.010000E+01   6.010000E+01   6.010000E+01   6.010000E+01   6.010000E+01   6.010000E+01   6.010000E+01   6.010000E+01   6.010000E+01   6.010000E+01   6.010000E+01   6.010000E+01   6.010000E+01   6.010000E+01   6.010000E+01   6.010000E+01   6.010000E+01   6.010000E+01   6.010000E+01   6.010000E+01   6.010000E+01   6.010000E+01   6.010000E+01   6.010000E+01   6.010000E+01   6.010000E+01   6.010000E+01   6.010000E+01   6.010000E+01   6.010000E+01   6.010000E+01   6.010000E+01   6.010000E+01   6.010000E+01   6.010000E+01   6.010000E+01   6.010000E+01   6.010000E+01   6.010000E+01   6.010000E+01   6.010000E+01   6.010000E+01   6.010000E+01   6.010000E+01   6.010000E+01   6.010000E+01   6.010000E+01   6.010000E+01   6.010000E+01   6.010000E+01   6.010000E+01   6.010000E+01   6.010000E+01   6.010000E+01   6.010000E+01   6.010000E+01   6.010000E+01   6.010000E+01   6.010000E+01   6.010000E+01   6.010000E+01   6.010000E+01   6.010000E+01   6.010000E+01   6.010000E+01   6.010000E+01   6.010000E+01   6.010000E+01   6.010000E+01   6.010000E+01   6.010000E+01   6.010000E+01
   6.010000E+01   6.010000E+01   6.010000E+01   6.010000E+01   6.010000E+01   6.010000E+01   6.010000E+01   6.010000E+01   6.010000E+01   6.010000E+01   6.010000E+01   6.010000E+01   6.010000E+01   6.010000E+01   6.010000E+01   6.010000E+01   6.010000E+01   6.010000E+01   6.010000E+01   6.010000E+01   6.010000E+01   6.010000E+01   6.010000E+01   6.010000E+01   6.010000E+01   6.010000E+01   6.010000E+01   6.010000E+01   6.010000E+01   6.010000E+01   6.010000E+01   6.010000E+01   6.010000E+01   6.010000E+01   6.010000E+01   6.010000E+01   6.010000E+01   6.010000E+01   6.010000E+01   6.010000E+01   6.010000E+01   6.010000E+01   6.010000E+01   6.010000E+01   6.010000E+01   6.010000E+01   6.010000E+01   6.010000E+01   6.010000E+01   6.010000E+01   6.010000E+01   6.010000E+01   6.010000E+01   6.010000E+01   6.010000E+01   6.010000E+01   6.010000E+01   6.010000E+01   6.010000E+01   6.010000E+01   6.010000E+01   6.010000E+01   6.010000E+01   6.010000E+01   6.010000E+01   6.010000E+01   6.010000E+01   6.010000E+01   6.010000E+01   6.010000E+01   6.010000E+01   6.010000E+01   6.010000E+01   6.010000E+01   6.010000E+01   6.010000E+01   6.010000E+01   6.010000E+01   6.010000E+01   6.010000E+01   6.010000E+01   6.010000E+01   6.010000E+01   6.010000E+01   6.010000E+01   6.010000E+01   6.010000E+01   6.010000E+01   6.010000E+01   6.010000E+01   6.010000E+01   6.010000E+01   6.010000E+01   6.010000E+01   6.010000E+01   6.010000E+01   6.010000E+01   6.010000E+01   6.010000E+01   6.010000E+01   6.010000E+01   6.010000E+01   6.010000E+01   6.010000E+01   6.010000E+01   6.010000E+01   6.010000E+01   6.010000E+01   6.010000E+01   6.010000E+01   6.010000E+01   6.010000E+01   6.010000E+01   6.010000E+01   6.010000E+01   6.010000E+01   6.010000E+01   6.010000E+01   6.010000E+01   6.010000E+01   6.010000E+01   6.010000E+01   6.010000E+01   6.010000E+01   6.010000E+01   6.010000E+01   6.010000E+01   6.010000E+01   6.010000E+01   6.010000E+01   6.010000E+01   6.010000E+01   6.010000E+01   6.010000E+01   6.010000E+01   6.010000E+01   6.010000E+01   6.010000E+01   6.010000E+01   6.010000E+01   6.010000E+01   6.010000E+01   6.010000E+01   6.010000E+01   6.010000E+01