# STR package for  MODFLOW-2005, generated by Flopy.
309 1 0 0 0 86400.0 53 53 
       309         1         1  # stress period 1
1 53 77 1 0 0.0 1639.1571044921875 10.800000190734863 1596.0570068359375 1638.1571044921875 
1 54 77 1 1 0.0 1638.1571044921875 10.800000190734863 1595.0570068359375 1637.1571044921875 
1 54 76 1 2 0.0 1637.1571044921875 10.800000190734863 1594.0570068359375 1636.1571044921875 
1 55 76 1 3 0.0 1636.1571044921875 10.800000190734863 1593.0570068359375 1635.1571044921875 
1 55 75 1 4 0.0 1635.1571044921875 10.800000190734863 1592.0570068359375 1634.1571044921875 
1 56 75 1 5 0.0 1634.1571044921875 10.800000190734863 1591.0570068359375 1633.1571044921875 
1 57 75 1 6 0.0 1633.1571044921875 10.800000190734863 1590.0570068359375 1632.1571044921875 
1 58 75 1 7 0.0 1632.1571044921875 10.800000190734863 1589.0570068359375 1631.1571044921875 
1 59 75 1 8 0.0 1631.1571044921875 10.800000190734863 1588.0570068359375 1630.1571044921875 
1 60 75 1 9 0.0 1630.1571044921875 10.800000190734863 1587.0570068359375 1629.1571044921875 
1 61 75 1 10 0.0 1629.1571044921875 10.800000190734863 1586.0570068359375 1628.1571044921875 
1 61 74 1 11 0.0 1626.701416015625 10.800000190734863 1583.6014404296875 1625.701416015625 
1 62 74 1 12 0.0 1625.776611328125 10.800000190734863 1582.6766357421875 1624.776611328125 
1 63 74 1 13 0.0 1624.4791259765625 10.800000190734863 1581.379150390625 1623.4791259765625 
1 64 74 1 14 0.0 1623.7606201171875 10.800000190734863 1580.66064453125 1622.7606201171875 
1 64 75 1 15 0.0 1622.280029296875 10.800000190734863 1579.1800537109375 1621.280029296875 
1 64 76 1 16 0.0 1621.6632080078125 10.800000190734863 1578.563232421875 1620.6632080078125 
1 65 76 1 17 0.0 1619.5933837890625 10.800000190734863 1576.493408203125 1618.5933837890625 
1 66 76 1 18 0.0 1619.2547607421875 10.800000190734863 1576.15478515625 1618.2547607421875 
1 66 77 1 19 0.0 1618.0693359375 10.800000190734863 1574.9693603515625 1617.0693359375 
1 67 77 1 20 0.0 1617.3421630859375 10.800000190734863 1574.2421875 1616.3421630859375 
1 68 77 1 21 0.0 1616.5867919921875 10.800000190734863 1573.48681640625 1615.5867919921875 
1 68 78 1 22 0.0 1615.5430908203125 10.800000190734863 1572.4429931640625 1614.5430908203125 
1 68 79 1 23 0.0 1614.020751953125 10.800000190734863 1570.920654296875 1613.020751953125 
1 69 79 1 24 0.0 1613.021728515625 10.800000190734863 1569.9217529296875 1612.021728515625 
1 69 80 1 25 0.0 1612.0316162109375 10.800000190734863 1568.931640625 1611.0316162109375 
1 69 81 1 26 0.0 1610.5531005859375 10.800000190734863 1567.453125 1609.5531005859375 
1 70 81 1 27 0.0 1610.140625 10.800000190734863 1567.0406494140625 1609.140625 
1 70 82 1 28 0.0 1608.8240966796875 10.800000190734863 1565.72412109375 1607.8240966796875 
1 70 83 1 29 0.0 1608.30029296875 10.800000190734863 1565.2003173828125 1607.30029296875 
1 71 83 1 30 0.0 1607.7801513671875 10.800000190734863 1564.6800537109375 1606.7801513671875 
1 72 83 1 31 0.0 1606.763671875 10.800000190734863 1563.6636962890625 1605.763671875 
1 72 84 1 32 0.0 1606.2509765625 10.800000190734863 1563.1510009765625 1605.2509765625 
1 73 84 1 33 0.0 1605.241943359375 10.800000190734863 1562.1419677734375 1604.241943359375 
1 74 84 1 34 0.0 1604.7366943359375 10.800000190734863 1561.6365966796875 1603.7366943359375 
1 75 84 1 35 0.0 1603.735107421875 10.800000190734863 1560.635009765625 1602.735107421875 
1 76 84 1 36 0.0 1603.2371826171875 10.800000190734863 1560.13720703125 1602.2371826171875 
1 77 84 1 37 0.0 1602.2430419921875 10.800000190734863 1559.14306640625 1601.2430419921875 
1 78 84 1 38 0.0 1601.7525634765625 10.800000190734863 1558.652587890625 1600.7525634765625 
1 79 84 1 39 0.0 1600.765869140625 10.800000190734863 1557.6658935546875 1599.765869140625 
1 79 83 1 40 0.0 1600.2828369140625 10.800000190734863 1557.182861328125 1599.2828369140625 
1 80 83 1 41 0.0 1599.3035888671875 10.800000190734863 1556.20361328125 1598.3035888671875 
1 81 83 1 42 0.0 1598.8280029296875 10.800000190734863 1555.72802734375 1597.8280029296875 
1 82 83 1 43 0.0 1597.8560791015625 10.800000190734863 1554.756103515625 1596.8560791015625 
1 83 83 1 44 0.0 1597.387939453125 10.800000190734863 1554.2879638671875 1596.387939453125 
1 84 83 1 45 0.0 1596.4234619140625 10.800000190734863 1553.323486328125 1595.4234619140625 
1 85 83 1 46 0.0 1595.9627685546875 10.800000190734863 1552.86279296875 1594.9627685546875 
1 85 82 1 47 0.0 1595.0057373046875 10.800000190734863 1551.90576171875 1594.0057373046875 
1 85 81 1 48 0.0 1594.552490234375 10.800000190734863 1551.452392578125 1593.552490234375 
1 85 80 1 49 0.0 1593.6029052734375 10.800000190734863 1550.5028076171875 1592.6029052734375 
1 86 80 1 50 0.0 1593.156982421875 10.800000190734863 1550.0570068359375 1592.156982421875 
1 87 80 1 51 0.0 1592.21484375 10.800000190734863 1549.1148681640625 1591.21484375 
1 87 81 1 52 0.0 1591.7763671875 10.800000190734863 1548.6763916015625 1590.7763671875 
1 88 81 1 53 0.0 1590.8416748046875 10.800000190734863 1547.7415771484375 1589.8416748046875 
1 88 82 1 54 0.0 1590.41064453125 10.800000190734863 1547.310546875 1589.41064453125 
1 88 83 1 55 0.0 1589.4832763671875 10.800000190734863 1546.38330078125 1588.4832763671875 
1 88 84 1 56 0.0 1589.0596923828125 10.800000190734863 1545.959716796875 1588.0596923828125 
1 89 84 1 57 0.0 1588.1397705078125 10.800000190734863 1545.039794921875 1587.1397705078125 
1 90 84 1 58 0.0 1587.7236328125 10.800000190734863 1544.6236572265625 1586.7236328125 
1 90 83 1 59 0.0 1586.8111572265625 10.800000190734863 1543.711181640625 1585.8111572265625 
1 90 82 1 60 0.0 1586.4024658203125 10.800000190734863 1543.302490234375 1585.4024658203125 
1 90 81 1 61 0.0 1585.4974365234375 10.800000190734863 1542.3974609375 1584.4974365234375 
1 91 81 1 62 0.0 1585.0960693359375 10.800000190734863 1541.99609375 1584.0960693359375 
1 91 80 1 63 0.0 1584.198486328125 10.800000190734863 1541.0985107421875 1583.198486328125 
1 92 80 1 64 0.0 1583.8045654296875 10.800000190734863 1540.70458984375 1582.8045654296875 
1 92 79 1 65 0.0 1582.9144287109375 10.800000190734863 1539.814453125 1581.9144287109375 
1 92 78 1 66 0.0 1582.5279541015625 10.800000190734863 1539.427978515625 1581.5279541015625 
1 93 78 1 67 0.0 1581.645263671875 10.800000190734863 1538.5452880859375 1580.645263671875 
1 93 77 1 68 0.0 1581.2662353515625 10.800000190734863 1538.1661376953125 1580.2662353515625 
1 93 76 1 69 0.0 1580.890869140625 10.800000190734863 1537.7908935546875 1579.890869140625 
1 94 76 1 70 0.0 1580.519287109375 10.800000190734863 1537.4193115234375 1579.519287109375 
1 95 76 1 71 0.0 1580.1513671875 10.800000190734863 1537.0513916015625 1579.1513671875 
1 95 77 1 72 0.0 1579.2872314453125 10.800000190734863 1536.187255859375 1578.2872314453125 
1 95 78 1 73 0.0 1578.9267578125 10.800000190734863 1535.8267822265625 1577.9267578125 
1 95 79 1 74 0.0 1578.0699462890625 10.800000190734863 1534.969970703125 1577.0699462890625 
1 95 80 1 75 0.0 1577.7169189453125 10.800000190734863 1534.616943359375 1576.7169189453125 
1 96 80 1 76 0.0 1576.86767578125 10.800000190734863 1533.767578125 1575.86767578125 
1 97 80 1 77 0.0 1576.52197265625 10.800000190734863 1533.4219970703125 1575.52197265625 
1 97 79 1 78 0.0 1575.6800537109375 10.800000190734863 1532.580078125 1574.6800537109375 
1 98 79 1 79 0.0 1575.163330078125 10.800000190734863 1532.0633544921875 1574.163330078125 
1 98 78 1 80 0.0 1574.5670166015625 10.800000190734863 1531.467041015625 1573.5670166015625 
1 99 78 1 81 0.0 1573.974365234375 10.800000190734863 1530.874267578125 1572.974365234375 
1 99 77 1 82 0.0 1573.3853759765625 10.800000190734863 1530.285400390625 1572.3853759765625 
1 100 77 1 83 0.0 1572.8001708984375 10.800000190734863 1529.7001953125 1571.8001708984375 
1 100 76 1 84 0.0 1572.2186279296875 10.800000190734863 1529.11865234375 1571.2186279296875 
1 100 75 1 85 0.0 1571.6407470703125 10.800000190734863 1528.540771484375 1570.6407470703125 
1 101 75 1 86 0.0 1571.0667724609375 10.800000190734863 1527.9666748046875 1570.0667724609375 
1 101 74 1 87 0.0 1570.496337890625 10.800000190734863 1527.3963623046875 1569.496337890625 
1 101 73 1 88 0.0 1569.9296875 10.800000190734863 1526.8297119140625 1568.9296875 
1 102 73 1 89 0.0 1569.36669921875 10.800000190734863 1526.2667236328125 1568.36669921875 
1 103 73 1 90 0.0 1568.8074951171875 10.800000190734863 1525.70751953125 1567.8074951171875 
1 104 73 1 91 0.0 1568.251953125 10.800000190734863 1525.1519775390625 1567.251953125 
1 104 74 1 92 0.0 1567.7001953125 10.800000190734863 1524.60009765625 1566.7001953125 
1 105 74 1 93 0.0 1567.152099609375 10.800000190734863 1524.052001953125 1566.152099609375 
1 105 75 1 94 0.0 1566.607666015625 10.800000190734863 1523.5076904296875 1565.607666015625 
1 106 75 1 95 0.0 1566.0670166015625 10.800000190734863 1522.967041015625 1565.0670166015625 
1 106 76 1 96 0.0 1565.530029296875 10.800000190734863 1522.4300537109375 1564.530029296875 
1 107 76 1 97 0.0 1564.996826171875 10.800000190734863 1521.896728515625 1563.996826171875 
1 107 77 1 98 0.0 1564.46728515625 10.800000190734863 1521.3673095703125 1563.46728515625 
1 107 78 1 99 0.0 1563.94140625 10.800000190734863 1520.8414306640625 1562.94140625 
1 108 78 1 100 0.0 1563.4193115234375 10.800000190734863 1520.3193359375 1562.4193115234375 
1 108 79 1 101 0.0 1562.90087890625 10.800000190734863 1519.8009033203125 1561.90087890625 
1 109 79 1 102 0.0 1562.38623046875 10.800000190734863 1519.2862548828125 1561.38623046875 
1 110 79 1 103 0.0 1561.875244140625 10.800000190734863 1518.7752685546875 1560.875244140625 
1 111 79 1 104 0.0 1561.3680419921875 10.800000190734863 1518.26806640625 1560.3680419921875 
1 112 79 1 105 0.0 1560.864501953125 10.800000190734863 1517.7645263671875 1559.864501953125 
1 113 79 1 106 0.0 1560.36474609375 10.800000190734863 1517.2646484375 1559.36474609375 
1 114 79 1 107 0.0 1559.8685302734375 10.800000190734863 1516.7685546875 1558.8685302734375 
1 114 80 1 108 0.0 1559.376220703125 10.800000190734863 1516.2762451171875 1558.376220703125 
1 115 80 1 109 0.0 1558.887451171875 10.800000190734863 1515.7874755859375 1557.887451171875 
1 116 80 1 110 0.0 1558.402587890625 10.800000190734863 1515.302490234375 1557.402587890625 
1 116 79 1 111 0.0 1557.9212646484375 10.800000190734863 1514.8212890625 1556.9212646484375 
1 117 79 1 112 0.0 1557.4437255859375 10.800000190734863 1514.34375 1556.4437255859375 
1 118 79 1 113 0.0 1556.969970703125 10.800000190734863 1513.869873046875 1555.969970703125 
1 119 79 1 114 0.0 1556.499755859375 10.800000190734863 1513.3997802734375 1555.499755859375 
1 120 79 1 115 0.0 1556.033447265625 10.800000190734863 1512.933349609375 1555.033447265625 
1 120 78 1 116 0.0 1555.5706787109375 10.800000190734863 1512.470703125 1554.5706787109375 
1 121 78 1 117 0.0 1555.1116943359375 10.800000190734863 1512.01171875 1554.1116943359375 
1 122 78 1 118 0.0 1554.656494140625 10.800000190734863 1511.5565185546875 1553.656494140625 
1 123 78 1 119 0.0 1554.2049560546875 10.800000190734863 1511.10498046875 1553.2049560546875 
1 123 77 1 120 0.0 1553.757080078125 10.800000190734863 1510.6571044921875 1552.757080078125 
1 124 77 1 121 0.0 1553.31298828125 10.800000190734863 1510.2130126953125 1552.31298828125 
1 125 77 1 122 0.0 1552.87255859375 10.800000190734863 1509.7725830078125 1551.87255859375 
1 126 77 1 123 0.0 1552.4359130859375 10.800000190734863 1509.3359375 1551.4359130859375 
1 127 77 1 124 0.0 1552.0029296875 10.800000190734863 1508.9029541015625 1551.0029296875 
1 127 78 1 125 0.0 1551.5736083984375 10.800000190734863 1508.4736328125 1550.5736083984375 
1 128 78 1 126 0.0 1551.1480712890625 10.800000190734863 1508.048095703125 1550.1480712890625 
1 129 78 1 127 0.0 1550.726318359375 10.800000190734863 1507.626220703125 1549.726318359375 
1 130 78 1 128 0.0 1550.30810546875 10.800000190734863 1507.2081298828125 1549.30810546875 
1 131 78 1 129 0.0 1549.8936767578125 10.800000190734863 1506.793701171875 1548.8936767578125 
1 132 78 1 130 0.0 1549.4830322265625 10.800000190734863 1506.383056640625 1548.4830322265625 
1 133 78 1 131 0.0 1549.0760498046875 10.800000190734863 1505.97607421875 1548.0760498046875 
1 133 77 1 132 0.0 1548.6727294921875 10.800000190734863 1505.57275390625 1547.6727294921875 
1 134 77 1 133 0.0 1548.273193359375 10.800000190734863 1505.1732177734375 1547.273193359375 
1 134 76 1 134 0.0 1547.87744140625 10.800000190734863 1504.77734375 1546.87744140625 
1 135 76 1 135 0.0 1547.4852294921875 10.800000190734863 1504.38525390625 1546.4852294921875 
1 136 76 1 136 0.0 1547.0968017578125 10.800000190734863 1503.996826171875 1546.0968017578125 
1 137 76 1 137 0.0 1546.712158203125 10.800000190734863 1503.6121826171875 1545.712158203125 
1 138 76 1 138 0.0 1546.3311767578125 10.800000190734863 1503.231201171875 1545.3311767578125 
1 138 77 1 139 0.0 1545.953857421875 10.800000190734863 1502.8538818359375 1544.953857421875 
1 139 77 1 140 0.0 1545.3521728515625 10.800000190734863 1502.252197265625 1544.3521728515625 
1 140 77 1 141 0.0 1544.7542724609375 10.800000190734863 1501.654296875 1543.7542724609375 
1 140 78 1 142 0.0 1544.1790771484375 10.800000190734863 1501.0791015625 1543.1790771484375 
1 141 78 1 143 0.0 1543.6065673828125 10.800000190734863 1500.506591796875 1542.6065673828125 
1 142 78 1 144 0.0 1543.0367431640625 10.800000190734863 1499.936767578125 1542.0367431640625 
1 143 78 1 145 0.0 1542.4696044921875 10.800000190734863 1499.36962890625 1541.4696044921875 
1 143 77 1 146 0.0 1541.904296875 10.800000190734863 1498.8043212890625 1540.904296875 
1 143 76 1 147 0.0 1541.340576171875 10.800000190734863 1498.2406005859375 1540.340576171875 
1 144 76 1 148 0.0 1540.7786865234375 10.800000190734863 1497.6787109375 1539.7786865234375 
1 144 75 1 149 0.0 1540.200439453125 10.800000190734863 1497.1004638671875 1539.200439453125 
1 145 75 1 150 0.0 1539.82275390625 10.800000190734863 1496.7227783203125 1538.82275390625 
1 146 75 1 151 0.0 1539.3519287109375 10.800000190734863 1496.251953125 1538.3519287109375 
1 147 75 1 152 0.0 1538.8848876953125 10.800000190734863 1495.784912109375 1537.8848876953125 
1 148 75 1 153 0.0 1538.4215087890625 10.800000190734863 1495.321533203125 1537.4215087890625 
1 149 75 1 154 0.0 1537.9617919921875 10.800000190734863 1494.86181640625 1536.9617919921875 
1 149 76 1 155 0.0 1537.505859375 10.800000190734863 1494.4058837890625 1536.505859375 
1 150 76 1 156 0.0 1537.0535888671875 10.800000190734863 1493.95361328125 1536.0535888671875 
1 151 76 1 157 0.0 1536.6051025390625 10.800000190734863 1493.505126953125 1535.6051025390625 
1 151 77 1 158 0.0 1536.1602783203125 10.800000190734863 1493.060302734375 1535.1602783203125 
1 152 77 1 159 0.0 1535.71923828125 10.800000190734863 1492.6192626953125 1534.71923828125 
1 153 77 1 160 0.0 1535.2818603515625 10.800000190734863 1492.181884765625 1534.2818603515625 
1 154 77 1 161 0.0 1534.84814453125 10.800000190734863 1491.7481689453125 1533.84814453125 
1 155 77 1 162 0.0 1534.418212890625 10.800000190734863 1491.3182373046875 1533.418212890625 
1 156 78 1 163 0.0 1533.991943359375 10.800000190734863 1490.8919677734375 1532.991943359375 
1 157 78 1 164 0.0 1533.5694580078125 10.800000190734863 1490.469482421875 1532.5694580078125 
1 157 79 1 165 0.0 1533.150634765625 10.800000190734863 1490.0506591796875 1532.150634765625 
1 158 79 1 166 0.0 1532.83544921875 10.800000190734863 1489.7354736328125 1531.83544921875 
1 159 79 1 167 0.0 1532.524169921875 10.800000190734863 1489.424072265625 1531.524169921875 
1 159 80 1 168 0.0 1532.2164306640625 10.800000190734863 1489.116455078125 1531.2164306640625 
1 160 80 1 169 0.0 1531.9124755859375 10.800000190734863 1488.8125 1530.9124755859375 
1 161 80 1 170 0.0 1531.6121826171875 10.800000190734863 1488.51220703125 1530.6121826171875 
1 162 80 1 171 0.0 1531.315673828125 10.800000190734863 1488.2156982421875 1530.315673828125 
1 163 80 1 172 0.0 1531.0228271484375 10.800000190734863 1487.9228515625 1530.0228271484375 
1 164 80 1 173 0.0 1530.7337646484375 10.800000190734863 1487.6337890625 1529.7337646484375 
1 165 80 1 174 0.0 1530.4483642578125 10.800000190734863 1487.348388671875 1529.4483642578125 
1 165 79 1 175 0.0 1530.166748046875 10.800000190734863 1487.066650390625 1529.166748046875 
1 165 78 1 176 0.0 1529.888671875 10.800000190734863 1486.7886962890625 1528.888671875 
1 165 77 1 177 0.0 1529.614501953125 10.800000190734863 1486.5145263671875 1528.614501953125 
1 165 76 1 178 0.0 1529.343994140625 10.800000190734863 1486.243896484375 1528.343994140625 
1 165 75 1 179 0.0 1529.0771484375 10.800000190734863 1485.97705078125 1528.0771484375 
1 166 75 1 180 0.0 1528.81396484375 10.800000190734863 1485.7139892578125 1527.81396484375 
1 167 75 1 181 0.0 1528.5545654296875 10.800000190734863 1485.45458984375 1527.5545654296875 
1 167 76 1 182 0.0 1528.2989501953125 10.800000190734863 1485.1988525390625 1527.2989501953125 
1 167 77 1 183 0.0 1528.0469970703125 10.800000190734863 1484.9468994140625 1527.0469970703125 
1 168 77 1 184 0.0 1527.7987060546875 10.800000190734863 1484.69873046875 1526.7987060546875 
1 169 77 1 185 0.0 1527.5540771484375 10.800000190734863 1484.4541015625 1526.5540771484375 
1 169 76 1 186 0.0 1527.11328125 10.800000190734863 1484.0133056640625 1526.11328125 
1 169 75 1 187 0.0 1526.6761474609375 10.800000190734863 1483.576171875 1525.6761474609375 
1 170 75 1 188 0.0 1526.2427978515625 10.800000190734863 1483.142822265625 1525.2427978515625 
1 171 75 1 189 0.0 1525.8131103515625 10.800000190734863 1482.713134765625 1524.8131103515625 
1 172 75 1 190 0.0 1525.3870849609375 10.800000190734863 1482.287109375 1524.3870849609375 
1 173 75 1 191 0.0 1524.96484375 10.800000190734863 1481.8648681640625 1523.96484375 
1 173 74 1 192 0.0 1524.5462646484375 10.800000190734863 1481.4462890625 1523.5462646484375 
1 173 73 1 193 0.0 1524.1314697265625 10.800000190734863 1481.031494140625 1523.1314697265625 
1 174 73 1 194 0.0 1523.7203369140625 10.800000190734863 1480.620361328125 1522.7203369140625 
1 175 73 1 195 0.0 1523.31298828125 10.800000190734863 1480.212890625 1522.31298828125 
1 176 73 1 196 0.0 1522.9093017578125 10.800000190734863 1479.8092041015625 1521.9093017578125 
1 176 72 1 197 0.0 1522.50927734375 10.800000190734863 1479.4093017578125 1521.50927734375 
1 177 72 1 198 0.0 1522.113037109375 10.800000190734863 1479.012939453125 1521.113037109375 
1 178 72 1 199 0.0 1521.720458984375 10.800000190734863 1478.6204833984375 1520.720458984375 
1 179 72 1 200 0.0 1521.33154296875 10.800000190734863 1478.2315673828125 1520.33154296875 
1 179 71 1 201 0.0 1520.946533203125 10.800000190734863 1477.846435546875 1519.946533203125 
1 180 71 1 202 0.0 1520.5650634765625 10.800000190734863 1477.465087890625 1519.5650634765625 
1 181 71 1 203 0.0 1520.1873779296875 10.800000190734863 1477.08740234375 1519.1873779296875 
1 182 71 1 204 0.0 1519.8133544921875 10.800000190734863 1476.71337890625 1518.8133544921875 
1 182 70 1 205 0.0 1519.443115234375 10.800000190734863 1476.3431396484375 1518.443115234375 
1 183 70 1 206 0.0 1519.0765380859375 10.800000190734863 1475.9765625 1518.0765380859375 
1 184 70 1 207 0.0 1518.7137451171875 10.800000190734863 1475.6136474609375 1517.7137451171875 
1 184 71 1 208 0.0 1518.3546142578125 10.800000190734863 1475.2545166015625 1517.3546142578125 
1 185 71 1 209 0.0 1517.9991455078125 10.800000190734863 1474.899169921875 1516.9991455078125 
1 186 71 1 210 0.0 1517.847412109375 10.800000190734863 1474.7474365234375 1516.847412109375 
1 186 70 1 211 0.0 1517.699462890625 10.800000190734863 1474.5994873046875 1516.699462890625 
1 186 69 1 212 0.0 1517.55517578125 10.800000190734863 1474.4552001953125 1516.55517578125 
1 187 69 1 213 0.0 1517.41455078125 10.800000190734863 1474.3145751953125 1516.41455078125 
1 188 69 1 214 0.0 1517.2777099609375 10.800000190734863 1474.177734375 1516.2777099609375 
1 189 69 1 215 0.0 1516.944580078125 10.800000190734863 1473.8446044921875 1515.944580078125 
1 190 69 1 216 0.0 1516.815185546875 10.800000190734863 1473.7152099609375 1515.815185546875 
1 191 69 1 217 0.0 1516.489501953125 10.800000190734863 1473.3895263671875 1515.489501953125 
1 191 68 1 218 0.0 1516.16748046875 10.800000190734863 1473.0675048828125 1515.16748046875 
1 192 68 1 219 0.0 1515.8492431640625 10.800000190734863 1472.7491455078125 1514.8492431640625 
1 192 67 1 220 0.0 1515.53466796875 10.800000190734863 1472.4346923828125 1514.53466796875 
1 193 67 1 221 0.0 1515.2237548828125 10.800000190734863 1472.123779296875 1514.2237548828125 
1 194 67 1 222 0.0 1514.9166259765625 10.800000190734863 1471.816650390625 1513.9166259765625 
1 195 67 1 223 0.0 1514.813232421875 10.800000190734863 1471.7132568359375 1513.813232421875 
1 195 66 1 224 0.0 1514.7135009765625 10.800000190734863 1471.613525390625 1513.7135009765625 
1 196 66 1 225 0.0 1514.41748046875 10.800000190734863 1471.3175048828125 1513.41748046875 
1 197 66 1 226 0.0 1514.125244140625 10.800000190734863 1471.025146484375 1513.125244140625 
1 198 66 1 227 0.0 1514.03662109375 10.800000190734863 1470.9366455078125 1513.03662109375 
1 198 65 1 228 0.0 1513.7518310546875 10.800000190734863 1470.6517333984375 1512.7518310546875 
1 199 65 1 229 0.0 1513.4705810546875 10.800000190734863 1470.37060546875 1512.4705810546875 
1 200 65 1 230 0.0 1513.1932373046875 10.800000190734863 1470.0931396484375 1512.1932373046875 
1 200 64 1 231 0.0 1512.91943359375 10.800000190734863 1469.8194580078125 1511.91943359375 
1 201 64 1 232 0.0 1512.8494873046875 10.800000190734863 1469.74951171875 1511.8494873046875 
1 201 63 1 233 0.0 1512.5831298828125 10.800000190734863 1469.483154296875 1511.5831298828125 
1 202 63 1 234 0.0 1512.5206298828125 10.800000190734863 1469.4205322265625 1511.5206298828125 
1 203 63 1 235 0.0 1512.26171875 10.800000190734863 1469.1617431640625 1511.26171875 
1 203 62 1 236 0.0 1512.006591796875 10.800000190734863 1468.9066162109375 1511.006591796875 
1 204 62 1 237 0.0 1511.955078125 10.800000190734863 1468.8551025390625 1510.955078125 
1 205 62 1 238 0.0 1511.7073974609375 10.800000190734863 1468.607421875 1510.7073974609375 
1 206 62 1 239 0.0 1511.46337890625 10.800000190734863 1468.3634033203125 1510.46337890625 
1 207 62 1 240 0.0 1511.22314453125 10.800000190734863 1468.123046875 1510.22314453125 
1 208 62 1 241 0.0 1510.986572265625 10.800000190734863 1467.886474609375 1509.986572265625 
1 209 62 1 242 0.0 1510.753662109375 10.800000190734863 1467.6536865234375 1509.753662109375 
1 209 61 1 243 0.0 1510.5245361328125 10.800000190734863 1467.4244384765625 1509.5245361328125 
1 210 61 1 244 0.0 1510.299072265625 10.800000190734863 1467.1990966796875 1509.299072265625 
1 211 61 1 245 0.0 1510.0772705078125 10.800000190734863 1466.977294921875 1509.0772705078125 
1 211 62 1 246 0.0 1509.8592529296875 10.800000190734863 1466.75927734375 1508.8592529296875 
1 212 62 1 247 0.0 1509.64501953125 10.800000190734863 1466.5450439453125 1508.64501953125 
1 213 62 1 248 0.0 1509.4344482421875 10.800000190734863 1466.33447265625 1508.4344482421875 
1 214 62 1 249 0.0 1509.2275390625 10.800000190734863 1466.1275634765625 1508.2275390625 
1 214 61 1 250 0.0 1509.0244140625 10.800000190734863 1465.92431640625 1508.0244140625 
1 215 61 1 251 0.0 1508.824951171875 10.800000190734863 1465.7249755859375 1507.824951171875 
1 216 61 1 252 0.0 1508.629150390625 10.800000190734863 1465.5291748046875 1507.629150390625 
1 217 61 1 253 0.0 1508.4371337890625 10.800000190734863 1465.337158203125 1507.4371337890625 
1 218 61 1 254 0.0 1508.2489013671875 10.800000190734863 1465.1488037109375 1507.2489013671875 
1 218 62 1 255 0.0 1508.064208984375 10.800000190734863 1464.9642333984375 1507.064208984375 
1 219 62 1 256 0.0 1507.8834228515625 10.800000190734863 1464.783447265625 1506.8834228515625 
1 220 62 1 257 0.0 1507.7061767578125 10.800000190734863 1464.606201171875 1506.7061767578125 
1 220 63 1 258 0.0 1507.53271484375 10.800000190734863 1464.4327392578125 1506.53271484375 
1 220 64 1 259 0.0 1507.363037109375 10.800000190734863 1464.2630615234375 1506.363037109375 
1 221 64 1 260 0.0 1507.197021484375 10.800000190734863 1464.0970458984375 1506.197021484375 
1 221 65 1 261 0.0 1507.03466796875 10.800000190734863 1463.9346923828125 1506.03466796875 
1 222 65 1 262 0.0 1506.8760986328125 10.800000190734863 1463.776123046875 1505.8760986328125 
1 223 65 1 263 0.0 1506.72119140625 10.800000190734863 1463.6212158203125 1505.72119140625 
1 223 64 1 264 0.0 1506.570068359375 10.800000190734863 1463.4700927734375 1505.570068359375 
1 224 64 1 265 0.0 1506.422607421875 10.800000190734863 1463.3226318359375 1505.422607421875 
1 225 64 1 266 0.0 1506.27880859375 10.800000190734863 1463.1788330078125 1505.27880859375 
1 225 65 1 267 0.0 1506.1387939453125 10.800000190734863 1463.038818359375 1505.1387939453125 
1 226 65 1 268 0.0 1506.00244140625 10.800000190734863 1462.9024658203125 1505.00244140625 
1 227 65 1 269 0.0 1505.869873046875 10.800000190734863 1462.7698974609375 1504.869873046875 
1 227 64 1 270 0.0 1505.740966796875 10.800000190734863 1462.6409912109375 1504.740966796875 
1 227 63 1 271 0.0 1505.6158447265625 10.800000190734863 1462.515869140625 1504.6158447265625 
1 228 63 1 272 0.0 1505.494384765625 10.800000190734863 1462.3944091796875 1504.494384765625 
1 229 63 1 273 0.0 1505.3765869140625 10.800000190734863 1462.276611328125 1504.3765869140625 
1 229 64 1 274 0.0 1505.2625732421875 10.800000190734863 1462.16259765625 1504.2625732421875 
1 230 64 1 275 0.0 1505.1522216796875 10.800000190734863 1462.05224609375 1504.1522216796875 
1 230 65 1 276 0.0 1505.045654296875 10.800000190734863 1461.9456787109375 1504.045654296875 
1 231 65 1 277 0.0 1504.9427490234375 10.800000190734863 1461.8427734375 1503.9427490234375 
1 232 65 1 278 0.0 1504.843505859375 10.800000190734863 1461.7435302734375 1503.843505859375 
1 233 65 1 279 0.0 1504.748046875 10.800000190734863 1461.6480712890625 1503.748046875 
1 234 65 1 280 0.0 1504.6563720703125 10.800000190734863 1461.556396484375 1503.6563720703125 
1 235 65 1 281 0.0 1504.5682373046875 10.800000190734863 1461.46826171875 1503.5682373046875 
1 236 65 1 282 0.0 1504.4840087890625 10.800000190734863 1461.3839111328125 1503.4840087890625 
1 236 66 1 283 0.0 1504.4033203125 10.800000190734863 1461.3033447265625 1503.4033203125 
1 237 66 1 284 0.0 1504.326416015625 10.800000190734863 1461.2264404296875 1503.326416015625 
1 237 67 1 285 0.0 1504.2532958984375 10.800000190734863 1461.1533203125 1503.2532958984375 
1 237 68 1 286 0.0 1504.183837890625 10.800000190734863 1461.083740234375 1503.183837890625 
1 237 69 1 287 0.0 1504.1180419921875 10.800000190734863 1461.01806640625 1503.1180419921875 
1 238 69 1 288 0.0 1504.0560302734375 10.800000190734863 1460.9559326171875 1503.0560302734375 
1 239 69 1 289 0.0 1503.797607421875 10.800000190734863 1460.6976318359375 1502.797607421875 
1 239 68 1 290 0.0 1503.7430419921875 10.800000190734863 1460.64306640625 1502.7430419921875 
1 240 68 1 291 0.0 1503.692138671875 10.800000190734863 1460.5921630859375 1502.692138671875 
1 241 68 1 292 0.0 1503.6448974609375 10.800000190734863 1460.544921875 1502.6448974609375 
1 242 68 1 293 0.0 1503.6014404296875 10.800000190734863 1460.50146484375 1502.6014404296875 
1 243 68 1 294 0.0 1503.5616455078125 10.800000190734863 1460.461669921875 1502.5616455078125 
1 244 68 1 295 0.0 1503.525634765625 10.800000190734863 1460.4256591796875 1502.525634765625 
1 244 69 1 296 0.0 1503.4932861328125 10.800000190734863 1460.393310546875 1502.4932861328125 
1 245 69 1 297 0.0 1503.4647216796875 10.800000190734863 1460.36474609375 1502.4647216796875 
1 245 70 1 298 0.0 1503.4398193359375 10.800000190734863 1460.3397216796875 1502.4398193359375 
1 246 70 1 299 0.0 1503.4185791015625 10.800000190734863 1460.318603515625 1502.4185791015625 
1 247 70 1 300 0.0 1503.401123046875 10.800000190734863 1460.3011474609375 1502.401123046875 
1 247 69 1 301 0.0 1503.3873291015625 10.800000190734863 1460.287353515625 1502.3873291015625 
1 247 68 1 302 0.0 1503.3773193359375 10.800000190734863 1460.2772216796875 1502.3773193359375 
1 247 67 1 303 0.0 1503.3709716796875 10.800000190734863 1460.2708740234375 1502.3709716796875 
1 248 67 1 304 0.0 1503.3682861328125 10.800000190734863 1460.268310546875 1502.3682861328125 
1 248 66 1 305 0.0 1503.369384765625 10.800000190734863 1460.2694091796875 1502.369384765625 
1 249 66 1 306 0.0 1503.3741455078125 10.800000190734863 1460.274169921875 1502.3741455078125 
1 250 66 1 307 0.0 1503.3826904296875 10.800000190734863 1460.28271484375 1502.3826904296875 
1 250 65 1 308 0.0 1503.3948974609375 10.800000190734863 1460.294921875 1502.3948974609375 
