# WEL package for  MODFLOW-2005, generated by Flopy.
        20         0 
        20         0 # stress period 1
         1        63        94       -230000.0
         1        74        69       -230000.0
         1        87        47       -110000.0
         1        97        61       -230000.0
         1       105        89       -230000.0
         1       127        57       -230000.0
         1       143        83       -220000.0
         1       145        89       -220000.0
         1       149        85       -220000.0
         1       155        59       -180000.0
         1       165        37       -230000.0
         1       172        55       -180000.0
         1       185        86       -180000.0
         1       200        92       -180000.0
         1       201        51       -230000.0
         1       201        79       -230000.0
         1       216        45       -180000.0
         1       221        93       -180000.0
         1       227        77       -180000.0
         1       244        92       -180000.0
