# WEL package for  MODFLOW-2005, generated by Flopy.
        39         0 
        39         0 # stress period 1
         1       250        61        -15000.0
         1       246        64        -15000.0
         1       241        62        -15000.0
         1       236        61        -15000.0
         1       231        56        -15000.0
         1       224        58        -15000.0
         1       213        56        -15000.0
         1       216        45        -15000.0
         1       201        51        -15000.0
         1       192        63        -15000.0
         1       180        65        -15000.0
         1       172        55        -15000.0
         1       155        59        -15000.0
         1       157        73        -15000.0
         1       141        71        -15000.0
         1       162        84        -15000.0
         1       170        81        -15000.0
         1       183        76        -15000.0
         1       195        72        -15000.0
         1       185        86        -15000.0
         1       201        79        -15000.0
         1       209        67        -15000.0
         1       205        69        -15000.0
         1       217        72        -15000.0
         1       227        70        -15000.0
         1       232        72        -15000.0
         1       238        73        -15000.0
         1       245        74        -15000.0
         1       245        79        -15000.0
         1       237        87        -15000.0
         1       244        92        -15000.0
         1       230        83        -15000.0
         1       215        80        -15000.0
         1       221        93        -15000.0
         1       200        92        -15000.0
         1       127        57        -15000.0
         1        89        57        -15000.0
         1        74        69        -15000.0
         1       135        86        -15000.0
