# DIS package for  MODFLOW-2005, generated by Flopy.
         2       250       145         1         5         2
  1  0
CONSTANT    1.000000E+03                           #delr                          
CONSTANT    1.000000E+03                           #delc                          
INTERNAL               1 (145E15.6) -1 #model_top                     
   2.397750E+03   2.388642E+03   2.391838E+03   2.416708E+03   2.463196E+03   2.517010E+03   2.566077E+03   2.581358E+03   2.553141E+03   2.486914E+03   2.425405E+03   2.406008E+03   2.444472E+03   2.521619E+03   2.608615E+03   2.690851E+03   2.761591E+03   2.802963E+03   2.782565E+03   2.694582E+03   2.573827E+03   2.477421E+03   2.427243E+03   2.418395E+03   2.440508E+03   2.499067E+03   2.601440E+03   2.735268E+03   2.867051E+03   2.946886E+03   2.945377E+03   2.890274E+03   2.854650E+03   2.897366E+03   2.996091E+03   3.067572E+03   3.041591E+03   2.933772E+03   2.827833E+03   2.820658E+03   2.935405E+03   3.140837E+03   3.349616E+03   3.507668E+03   3.569918E+03   3.544293E+03   3.445309E+03   3.309328E+03   3.158491E+03   3.004225E+03   2.853951E+03   2.717215E+03   2.610302E+03   2.536214E+03   2.493951E+03   2.471797E+03   2.460535E+03   2.441577E+03   2.406749E+03   2.355610E+03   2.311001E+03   2.291111E+03   2.308148E+03   2.349808E+03   2.402647E+03   2.461468E+03   2.533718E+03   2.620398E+03   2.703964E+03   2.770453E+03   2.813663E+03   2.836433E+03   2.826063E+03   2.773073E+03   2.687696E+03   2.600768E+03   2.547531E+03   2.528656E+03   2.522894E+03   2.490892E+03   2.417984E+03   2.313306E+03   2.207147E+03   2.136118E+03   2.121577E+03   2.163800E+03   2.229643E+03   2.286187E+03   2.318368E+03   2.340110E+03   2.366132E+03   2.404074E+03   2.457325E+03   2.533498E+03   2.626516E+03   2.701070E+03   2.709204E+03   2.626392E+03   2.480754E+03   2.335185E+03   2.241920E+03   2.216392E+03   2.233813E+03   2.274005E+03   2.322894E+03   2.382058E+03   2.445583E+03   2.517586E+03   2.600796E+03   2.690343E+03   2.759053E+03   2.780233E+03   2.752263E+03   2.701262E+03   2.663004E+03   2.650425E+03   2.657353E+03   2.663279E+03   2.661029E+03   2.641344E+03   2.598862E+03   2.527901E+03   2.454582E+03   2.416008E+03   2.433443E+03   2.491838E+03   2.554348E+03   2.601550E+03   2.624664E+03   2.634513E+03   2.636818E+03   2.645240E+03   2.671893E+03   2.729959E+03   2.814966E+03   2.904829E+03   2.969095E+03   3.000124E+03   3.006776E+03   3.007984E+03   3.005857E+03   3.003388E+03   2.995844E+03   2.992778E+03   2.987037E+03
   2.268436E+03   2.282826E+03   2.303854E+03   2.330439E+03   2.370919E+03   2.418971E+03   2.466324E+03   2.478148E+03   2.447106E+03   2.392044E+03   2.362277E+03   2.388285E+03   2.467517E+03   2.571962E+03   2.671509E+03   2.747750E+03   2.792922E+03   2.790604E+03   2.729822E+03   2.620233E+03   2.503114E+03   2.421962E+03   2.385528E+03   2.390425E+03   2.429671E+03   2.512414E+03   2.631344E+03   2.761783E+03   2.859781E+03   2.886228E+03   2.842743E+03   2.785432E+03   2.790645E+03   2.880247E+03   2.997558E+03   3.050837E+03   2.996941E+03   2.874705E+03   2.771948E+03   2.774403E+03   2.896886E+03   3.105624E+03   3.311015E+03   3.457339E+03   3.500604E+03   3.451989E+03   3.329040E+03   3.171920E+03   3.008999E+03   2.857627E+03   2.724198E+03   2.612085E+03   2.529300E+03   2.476639E+03   2.452181E+03   2.444582E+03   2.442510E+03   2.427160E+03   2.393347E+03   2.346049E+03   2.311729E+03   2.306008E+03   2.336721E+03   2.389451E+03   2.452442E+03   2.518409E+03   2.590672E+03   2.667682E+03   2.738601E+03   2.794211E+03   2.828560E+03   2.837984E+03   2.810082E+03   2.739767E+03   2.639369E+03   2.534801E+03   2.456365E+03   2.409698E+03   2.383498E+03   2.346818E+03   2.286818E+03   2.210466E+03   2.141481E+03   2.103813E+03   2.106365E+03   2.145130E+03   2.195995E+03   2.241331E+03   2.276530E+03   2.315679E+03   2.367160E+03   2.431070E+03   2.504102E+03   2.583567E+03   2.657188E+03   2.690370E+03   2.656228E+03   2.550686E+03   2.418271E+03   2.305405E+03   2.243114E+03   2.225624E+03   2.234088E+03   2.262593E+03   2.308299E+03   2.375432E+03   2.451303E+03   2.535130E+03   2.620549E+03   2.701440E+03   2.750110E+03   2.750233E+03   2.706708E+03   2.654444E+03   2.620412E+03   2.608903E+03   2.604568E+03   2.595226E+03   2.580219E+03   2.554033E+03   2.509492E+03   2.446036E+03   2.395268E+03   2.391962E+03   2.447860E+03   2.539108E+03   2.627023E+03   2.691029E+03   2.721056E+03   2.729657E+03   2.727641E+03   2.734938E+03   2.761646E+03   2.815144E+03   2.884705E+03   2.950700E+03   2.991564E+03   3.005446E+03   3.002483E+03   2.996193E+03   2.990137E+03   2.985415E+03   2.980717E+03   2.978843E+03   2.976667E+03
   2.165610E+03   2.188889E+03   2.211920E+03   2.230604E+03   2.266049E+03   2.316200E+03   2.370604E+03   2.389355E+03   2.368738E+03   2.338217E+03   2.346406E+03   2.412743E+03   2.520700E+03   2.639246E+03   2.741907E+03   2.809616E+03   2.832222E+03   2.792154E+03   2.693210E+03   2.559342E+03   2.441070E+03   2.370521E+03   2.346749E+03   2.362620E+03   2.413635E+03   2.507188E+03   2.623498E+03   2.730741E+03   2.786859E+03   2.774938E+03   2.722510E+03   2.696721E+03   2.757147E+03   2.891975E+03   3.022085E+03   3.059808E+03   2.983457E+03   2.847407E+03   2.738368E+03   2.731235E+03   2.837435E+03   3.023333E+03   3.206721E+03   3.332113E+03   3.359986E+03   3.299369E+03   3.169671E+03   3.012483E+03   2.859300E+03   2.727846E+03   2.618615E+03   2.531042E+03   2.471509E+03   2.441221E+03   2.434225E+03   2.432469E+03   2.425199E+03   2.401193E+03   2.366310E+03   2.328999E+03   2.311029E+03   2.319259E+03   2.355679E+03   2.409246E+03   2.475021E+03   2.546804E+03   2.621481E+03   2.691989E+03   2.753786E+03   2.803237E+03   2.835816E+03   2.841481E+03   2.807394E+03   2.731632E+03   2.625034E+03   2.509095E+03   2.406461E+03   2.328573E+03   2.273429E+03   2.225309E+03   2.178601E+03   2.139396E+03   2.117325E+03   2.114829E+03   2.124760E+03   2.145995E+03   2.170809E+03   2.200892E+03   2.235693E+03   2.287545E+03   2.359218E+03   2.449342E+03   2.546571E+03   2.632442E+03   2.681701E+03   2.663018E+03   2.578642E+03   2.454403E+03   2.349931E+03   2.289328E+03   2.274252E+03   2.276516E+03   2.279657E+03   2.291975E+03   2.322894E+03   2.387750E+03   2.468395E+03   2.554664E+03   2.625062E+03   2.676022E+03   2.689396E+03   2.665597E+03   2.614307E+03   2.571084E+03   2.548532E+03   2.542140E+03   2.530933E+03   2.512181E+03   2.488779E+03   2.457682E+03   2.411454E+03   2.358491E+03   2.334005E+03   2.365418E+03   2.450439E+03   2.559534E+03   2.660343E+03   2.737682E+03   2.781399E+03   2.802785E+03   2.814513E+03   2.837270E+03   2.872455E+03   2.918121E+03   2.961660E+03   2.994719E+03   3.007929E+03   3.003347E+03   2.987942E+03   2.971118E+03   2.959685E+03   2.953899E+03   2.954496E+03   2.955046E+03   2.957778E+03
   2.143388E+03   2.163182E+03   2.171001E+03   2.165501E+03   2.185034E+03   2.232881E+03   2.293388E+03   2.322071E+03   2.318505E+03   2.316447E+03   2.357737E+03   2.450549E+03   2.570809E+03   2.688395E+03   2.781207E+03   2.836241E+03   2.844348E+03   2.785926E+03   2.666365E+03   2.515597E+03   2.393772E+03   2.328148E+03   2.314527E+03   2.338354E+03   2.395748E+03   2.488011E+03   2.587064E+03   2.659890E+03   2.677147E+03   2.648971E+03   2.617407E+03   2.641029E+03   2.750590E+03   2.913745E+03   3.048724E+03   3.079726E+03   2.994870E+03   2.850315E+03   2.727887E+03   2.692908E+03   2.758573E+03   2.895528E+03   3.038395E+03   3.134842E+03   3.150535E+03   3.089520E+03   2.972634E+03   2.840206E+03   2.719849E+03   2.622181E+03   2.540727E+03   2.475844E+03   2.439739E+03   2.432867E+03   2.442304E+03   2.438271E+03   2.415309E+03   2.375185E+03   2.339314E+03   2.316159E+03   2.317229E+03   2.337887E+03   2.374774E+03   2.422771E+03   2.484074E+03   2.555501E+03   2.628875E+03   2.695021E+03   2.753745E+03   2.804691E+03   2.839822E+03   2.843786E+03   2.804568E+03   2.726049E+03   2.618217E+03   2.498436E+03   2.380919E+03   2.279287E+03   2.199300E+03   2.141331E+03   2.109808E+03   2.109300E+03   2.133320E+03   2.163512E+03   2.179232E+03   2.184060E+03   2.184911E+03   2.200014E+03   2.229973E+03   2.284911E+03   2.364321E+03   2.470919E+03   2.587448E+03   2.679383E+03   2.705322E+03   2.638820E+03   2.510864E+03   2.374993E+03   2.300219E+03   2.288875E+03   2.319808E+03   2.346955E+03   2.355789E+03   2.361509E+03   2.384431E+03   2.448217E+03   2.529040E+03   2.603429E+03   2.637764E+03   2.637257E+03   2.604458E+03   2.559383E+03   2.513320E+03   2.489191E+03   2.480892E+03   2.477119E+03   2.460412E+03   2.436886E+03   2.409520E+03   2.374691E+03   2.327325E+03   2.284444E+03   2.280892E+03   2.333759E+03   2.429287E+03   2.537956E+03   2.637984E+03   2.720809E+03   2.777805E+03   2.818464E+03   2.856337E+03   2.906872E+03   2.959259E+03   3.000658E+03   3.020151E+03   3.022730E+03   3.010206E+03   2.987476E+03   2.958710E+03   2.932853E+03   2.919300E+03   2.916481E+03   2.923944E+03   2.927500E+03   2.934444E+03
   2.205953E+03   2.210261E+03   2.188724E+03   2.145802E+03   2.133553E+03   2.164636E+03   2.220851E+03   2.258862E+03   2.276118E+03   2.301125E+03   2.363375E+03   2.463772E+03   2.579287E+03   2.683923E+03   2.761001E+03   2.807380E+03   2.816749E+03   2.765364E+03   2.648189E+03   2.493402E+03   2.367037E+03   2.297723E+03   2.283333E+03   2.304252E+03   2.357366E+03   2.437654E+03   2.514870E+03   2.559657E+03   2.560233E+03   2.544307E+03   2.553512E+03   2.623759E+03   2.763375E+03   2.935569E+03   3.070851E+03   3.102332E+03   3.018985E+03   2.870124E+03   2.732469E+03   2.662085E+03   2.676639E+03   2.753553E+03   2.848038E+03   2.911962E+03   2.916680E+03   2.862483E+03   2.771111E+03   2.677325E+03   2.599369E+03   2.538326E+03   2.483759E+03   2.438862E+03   2.423498E+03   2.436598E+03   2.459410E+03   2.451042E+03   2.412497E+03   2.359136E+03   2.327421E+03   2.323224E+03   2.345459E+03   2.378642E+03   2.417147E+03   2.461344E+03   2.515514E+03   2.576900E+03   2.636955E+03   2.692195E+03   2.747064E+03   2.798738E+03   2.830343E+03   2.822510E+03   2.769479E+03   2.685226E+03   2.581125E+03   2.468710E+03   2.351632E+03   2.241879E+03   2.151180E+03   2.093347E+03   2.080124E+03   2.110892E+03   2.167119E+03   2.219232E+03   2.243512E+03   2.244444E+03   2.234760E+03   2.238999E+03   2.261495E+03   2.312455E+03   2.392113E+03   2.504732E+03   2.629424E+03   2.719945E+03   2.725707E+03   2.625171E+03   2.468381E+03   2.324348E+03   2.265844E+03   2.282455E+03   2.345501E+03   2.399040E+03   2.431125E+03   2.451729E+03   2.485062E+03   2.550110E+03   2.619698E+03   2.661056E+03   2.643375E+03   2.585775E+03   2.514705E+03   2.461001E+03   2.431070E+03   2.426735E+03   2.428807E+03   2.424293E+03   2.404376E+03   2.378093E+03   2.346735E+03   2.306804E+03   2.259410E+03   2.226667E+03   2.237984E+03   2.299506E+03   2.391056E+03   2.487394E+03   2.576598E+03   2.655638E+03   2.720096E+03   2.778916E+03   2.845514E+03   2.925075E+03   2.995597E+03   3.036379E+03   3.041783E+03   3.026886E+03   2.998834E+03   2.962291E+03   2.920782E+03   2.887599E+03   2.874499E+03   2.877373E+03   2.891228E+03   2.897500E+03   2.906667E+03
   2.313347E+03   2.290754E+03   2.235720E+03   2.157531E+03   2.109287E+03   2.112867E+03   2.152167E+03   2.192990E+03   2.226804E+03   2.272647E+03   2.347709E+03   2.448409E+03   2.552483E+03   2.636091E+03   2.692510E+03   2.733333E+03   2.756392E+03   2.729053E+03   2.630713E+03   2.483292E+03   2.356502E+03   2.281084E+03   2.261468E+03   2.274952E+03   2.320343E+03   2.385981E+03   2.444348E+03   2.473827E+03   2.479835E+03   2.496763E+03   2.554801E+03   2.662743E+03   2.816063E+03   2.982689E+03   3.111290E+03   3.140796E+03   3.059931E+03   2.910357E+03   2.763100E+03   2.661989E+03   2.625240E+03   2.638985E+03   2.681193E+03   2.713141E+03   2.710480E+03   2.668971E+03   2.606351E+03   2.548958E+03   2.505446E+03   2.471207E+03   2.436694E+03   2.408765E+03   2.411495E+03   2.440604E+03   2.472016E+03   2.459739E+03   2.410686E+03   2.351824E+03   2.327997E+03   2.342552E+03   2.384307E+03   2.431454E+03   2.477833E+03   2.525528E+03   2.574746E+03   2.619602E+03   2.654554E+03   2.688189E+03   2.730494E+03   2.774760E+03   2.792483E+03   2.761605E+03   2.684568E+03   2.588409E+03   2.489273E+03   2.393100E+03   2.292414E+03   2.194047E+03   2.111221E+03   2.064801E+03   2.067819E+03   2.114746E+03   2.183676E+03   2.245885E+03   2.282840E+03   2.293759E+03   2.290233E+03   2.292963E+03   2.312099E+03   2.355309E+03   2.426241E+03   2.528519E+03   2.644472E+03   2.724554E+03   2.717531E+03   2.603347E+03   2.436790E+03   2.288779E+03   2.231824E+03   2.253841E+03   2.331454E+03   2.406694E+03   2.470974E+03   2.521715E+03   2.580576E+03   2.650069E+03   2.701399E+03   2.699191E+03   2.629931E+03   2.529095E+03   2.441331E+03   2.394732E+03   2.384952E+03   2.393347E+03   2.398971E+03   2.391564E+03   2.371646E+03   2.343416E+03   2.306475E+03   2.259273E+03   2.212702E+03   2.190302E+03   2.212099E+03   2.273635E+03   2.353114E+03   2.432524E+03   2.507915E+03   2.580041E+03   2.649438E+03   2.723594E+03   2.813128E+03   2.911097E+03   2.990700E+03   3.029342E+03   3.028532E+03   3.006790E+03   2.971660E+03   2.925967E+03   2.874691E+03   2.836543E+03   2.824129E+03   2.831461E+03   2.847881E+03   2.855278E+03   2.863704E+03
   2.424458E+03   2.370233E+03   2.287696E+03   2.190329E+03   2.117517E+03   2.092387E+03   2.103128E+03   2.133539E+03   2.172579E+03   2.231468E+03   2.314293E+03   2.412634E+03   2.502661E+03   2.564883E+03   2.605624E+03   2.648162E+03   2.688381E+03   2.683388E+03   2.602977E+03   2.467160E+03   2.346680E+03   2.270796E+03   2.249492E+03   2.257490E+03   2.294732E+03   2.343567E+03   2.384993E+03   2.410014E+03   2.438258E+03   2.499876E+03   2.607750E+03   2.747984E+03   2.910809E+03   3.069959E+03   3.186790E+03   3.205857E+03   3.119808E+03   2.969369E+03   2.819136E+03   2.698107E+03   2.618217E+03   2.573224E+03   2.562936E+03   2.564005E+03   2.556818E+03   2.530466E+03   2.492757E+03   2.459808E+03   2.435597E+03   2.416214E+03   2.395748E+03   2.381948E+03   2.396694E+03   2.432881E+03   2.464842E+03   2.450069E+03   2.400192E+03   2.347956E+03   2.337106E+03   2.367517E+03   2.422359E+03   2.480261E+03   2.537462E+03   2.595665E+03   2.646790E+03   2.677915E+03   2.686324E+03   2.692620E+03   2.713141E+03   2.738656E+03   2.733690E+03   2.676077E+03   2.575268E+03   2.466763E+03   2.371193E+03   2.291303E+03   2.212867E+03   2.136859E+03   2.073375E+03   2.042606E+03   2.054417E+03   2.101125E+03   2.165857E+03   2.227448E+03   2.275103E+03   2.299822E+03   2.310274E+03   2.319781E+03   2.343128E+03   2.381687E+03   2.439506E+03   2.516379E+03   2.604787E+03   2.665514E+03   2.658121E+03   2.557737E+03   2.404938E+03   2.259300E+03   2.192442E+03   2.204005E+03   2.281783E+03   2.372030E+03   2.464636E+03   2.545364E+03   2.627929E+03   2.699355E+03   2.731166E+03   2.692044E+03   2.589314E+03   2.471619E+03   2.391756E+03   2.364376E+03   2.370562E+03   2.379410E+03   2.379465E+03   2.368436E+03   2.351317E+03   2.321824E+03   2.277394E+03   2.221756E+03   2.176900E+03   2.165802E+03   2.197133E+03   2.257257E+03   2.325144E+03   2.391166E+03   2.456639E+03   2.525048E+03   2.599781E+03   2.686187E+03   2.789191E+03   2.892003E+03   2.967586E+03   2.996927E+03   2.989410E+03   2.964979E+03   2.929451E+03   2.881852E+03   2.826914E+03   2.786749E+03   2.774129E+03   2.783038E+03   2.798155E+03   2.805093E+03   2.810741E+03
   2.531783E+03   2.456804E+03   2.363388E+03   2.266049E+03   2.185021E+03   2.135638E+03   2.110192E+03   2.111907E+03   2.137901E+03   2.197627E+03   2.284102E+03   2.379204E+03   2.454541E+03   2.497750E+03   2.528423E+03   2.574005E+03   2.621962E+03   2.623182E+03   2.549822E+03   2.425569E+03   2.318354E+03   2.252702E+03   2.241729E+03   2.257010E+03   2.293484E+03   2.327284E+03   2.351193E+03   2.374280E+03   2.426831E+03   2.532250E+03   2.686571E+03   2.861097E+03   3.037133E+03   3.188916E+03   3.284444E+03   3.281152E+03   3.180754E+03   3.027037E+03   2.877421E+03   2.747764E+03   2.639136E+03   2.547887E+03   2.490014E+03   2.461372E+03   2.449492E+03   2.436241E+03   2.416776E+03   2.396955E+03   2.380480E+03   2.367696E+03   2.358176E+03   2.358697E+03   2.383045E+03   2.418326E+03   2.440960E+03   2.421235E+03   2.378176E+03   2.343498E+03   2.349246E+03   2.389602E+03   2.447257E+03   2.508505E+03   2.573594E+03   2.642428E+03   2.697942E+03   2.719835E+03   2.707160E+03   2.689149E+03   2.687956E+03   2.694856E+03   2.671729E+03   2.596914E+03   2.481701E+03   2.363731E+03   2.268368E+03   2.199931E+03   2.144609E+03   2.095185E+03   2.052812E+03   2.030055E+03   2.036022E+03   2.068807E+03   2.120041E+03   2.174252E+03   2.223155E+03   2.253909E+03   2.275213E+03   2.296022E+03   2.330219E+03   2.370096E+03   2.414705E+03   2.459492E+03   2.509410E+03   2.544897E+03   2.543045E+03   2.473484E+03   2.353608E+03   2.224335E+03   2.152428E+03   2.152716E+03   2.222634E+03   2.317805E+03   2.423086E+03   2.519246E+03   2.610562E+03   2.679095E+03   2.697696E+03   2.642552E+03   2.532593E+03   2.424541E+03   2.368930E+03   2.366324E+03   2.381468E+03   2.381358E+03   2.367270E+03   2.349630E+03   2.333772E+03   2.303718E+03   2.253621E+03   2.192332E+03   2.149712E+03   2.147119E+03   2.184623E+03   2.243649E+03   2.305364E+03   2.366420E+03   2.430151E+03   2.501742E+03   2.584897E+03   2.681934E+03   2.790823E+03   2.889342E+03   2.953484E+03   2.969149E+03   2.950480E+03   2.917833E+03   2.877984E+03   2.829273E+03   2.775144E+03   2.736241E+03   2.723100E+03   2.730645E+03   2.741989E+03   2.747407E+03   2.750000E+03
   2.632812E+03   2.557641E+03   2.474403E+03   2.393155E+03   2.316255E+03   2.244348E+03   2.175871E+03   2.132003E+03   2.129876E+03   2.178381E+03   2.259424E+03   2.342071E+03   2.399369E+03   2.431660E+03   2.465652E+03   2.519835E+03   2.567641E+03   2.560658E+03   2.483416E+03   2.367380E+03   2.275062E+03   2.226735E+03   2.234636E+03   2.266680E+03   2.307833E+03   2.329781E+03   2.338669E+03   2.361468E+03   2.436324E+03   2.578189E+03   2.769808E+03   2.971207E+03   3.153813E+03   3.290329E+03   3.358038E+03   3.330288E+03   3.216530E+03   3.057613E+03   2.905007E+03   2.770302E+03   2.648724E+03   2.534376E+03   2.446721E+03   2.395185E+03   2.375377E+03   2.367311E+03   2.357599E+03   2.344143E+03   2.331646E+03   2.324293E+03   2.326118E+03   2.339643E+03   2.367997E+03   2.393498E+03   2.401577E+03   2.379726E+03   2.353045E+03   2.344458E+03   2.370357E+03   2.419259E+03   2.476721E+03   2.538285E+03   2.606241E+03   2.678395E+03   2.730576E+03   2.741344E+03   2.712510E+03   2.678683E+03   2.663196E+03   2.658532E+03   2.627490E+03   2.549698E+03   2.434033E+03   2.313786E+03   2.218875E+03   2.158080E+03   2.124705E+03   2.100151E+03   2.073882E+03   2.045816E+03   2.030425E+03   2.037599E+03   2.068875E+03   2.110192E+03   2.150041E+03   2.176927E+03   2.200713E+03   2.231221E+03   2.277353E+03   2.325158E+03   2.363320E+03   2.381454E+03   2.391331E+03   2.395693E+03   2.392949E+03   2.355171E+03   2.278628E+03   2.182963E+03   2.120562E+03   2.116886E+03   2.176379E+03   2.269657E+03   2.374801E+03   2.470521E+03   2.551879E+03   2.607517E+03   2.616296E+03   2.562552E+03   2.466146E+03   2.384472E+03   2.360370E+03   2.383443E+03   2.403470E+03   2.390165E+03   2.355226E+03   2.324541E+03   2.303347E+03   2.271948E+03   2.220919E+03   2.161536E+03   2.123992E+03   2.126269E+03   2.165597E+03   2.226008E+03   2.292483E+03   2.362538E+03   2.434952E+03   2.513182E+03   2.600110E+03   2.699026E+03   2.804966E+03   2.895665E+03   2.948628E+03   2.952579E+03   2.922071E+03   2.877984E+03   2.829808E+03   2.778121E+03   2.725130E+03   2.687298E+03   2.671852E+03   2.675137E+03   2.681475E+03   2.684907E+03   2.685185E+03
   2.704472E+03   2.651303E+03   2.598820E+03   2.544664E+03   2.478189E+03   2.386159E+03   2.275981E+03   2.180933E+03   2.140754E+03   2.164513E+03   2.229602E+03   2.295226E+03   2.339808E+03   2.372565E+03   2.417833E+03   2.478450E+03   2.517407E+03   2.495103E+03   2.411865E+03   2.304362E+03   2.226282E+03   2.195171E+03   2.220823E+03   2.270082E+03   2.317750E+03   2.334541E+03   2.337572E+03   2.366475E+03   2.463251E+03   2.633375E+03   2.848875E+03   3.058519E+03   3.227064E+03   3.329781E+03   3.363484E+03   3.317764E+03   3.203868E+03   3.045967E+03   2.887627E+03   2.746475E+03   2.623937E+03   2.511989E+03   2.420082E+03   2.359149E+03   2.330384E+03   2.319465E+03   2.311962E+03   2.301660E+03   2.292552E+03   2.290562E+03   2.302250E+03   2.325473E+03   2.353772E+03   2.368395E+03   2.365528E+03   2.348176E+03   2.340535E+03   2.355295E+03   2.396118E+03   2.452867E+03   2.514293E+03   2.580768E+03   2.648628E+03   2.712085E+03   2.744691E+03   2.734554E+03   2.691070E+03   2.652099E+03   2.636214E+03   2.633429E+03   2.607696E+03   2.538930E+03   2.433854E+03   2.320192E+03   2.232552E+03   2.181865E+03   2.167051E+03   2.157119E+03   2.132579E+03   2.084527E+03   2.037188E+03   2.013265E+03   2.021632E+03   2.047846E+03   2.076749E+03   2.101509E+03   2.130988E+03   2.174472E+03   2.233100E+03   2.289781E+03   2.324019E+03   2.320892E+03   2.294664E+03   2.265117E+03   2.249794E+03   2.231193E+03   2.195953E+03   2.145569E+03   2.108889E+03   2.110672E+03   2.159369E+03   2.243978E+03   2.339300E+03   2.422071E+03   2.480796E+03   2.515748E+03   2.515720E+03   2.472565E+03   2.400329E+03   2.352140E+03   2.359369E+03   2.405418E+03   2.428464E+03   2.402236E+03   2.343196E+03   2.291427E+03   2.256612E+03   2.223704E+03   2.180960E+03   2.134856E+03   2.106790E+03   2.109767E+03   2.145885E+03   2.209095E+03   2.288971E+03   2.377750E+03   2.464595E+03   2.548669E+03   2.633004E+03   2.725171E+03   2.821399E+03   2.902634E+03   2.947037E+03   2.944266E+03   2.905213E+03   2.849204E+03   2.788615E+03   2.729712E+03   2.675652E+03   2.637613E+03   2.618971E+03   2.616865E+03   2.619527E+03   2.621574E+03   2.621852E+03
   2.716763E+03   2.691495E+03   2.677942E+03   2.658628E+03   2.609835E+03   2.506282E+03   2.363512E+03   2.224472E+03   2.145857E+03   2.138381E+03   2.180370E+03   2.229671E+03   2.270645E+03   2.313882E+03   2.372442E+03   2.434335E+03   2.460658E+03   2.425624E+03   2.342689E+03   2.249040E+03   2.187380E+03   2.171125E+03   2.205556E+03   2.260960E+03   2.309904E+03   2.327462E+03   2.336680E+03   2.380713E+03   2.500658E+03   2.689753E+03   2.911056E+03   3.102332E+03   3.233896E+03   3.289438E+03   3.292743E+03   3.241756E+03   3.145295E+03   3.001152E+03   2.842469E+03   2.695679E+03   2.578217E+03   2.484870E+03   2.409561E+03   2.353443E+03   2.318080E+03   2.298683E+03   2.286036E+03   2.274321E+03   2.266379E+03   2.268011E+03   2.284691E+03   2.310233E+03   2.334541E+03   2.344897E+03   2.345007E+03   2.343155E+03   2.352263E+03   2.378916E+03   2.423196E+03   2.485652E+03   2.555967E+03   2.632716E+03   2.698642E+03   2.744541E+03   2.746804E+03   2.711536E+03   2.658436E+03   2.625679E+03   2.620562E+03   2.625926E+03   2.608135E+03   2.550027E+03   2.460864E+03   2.363498E+03   2.293155E+03   2.256036E+03   2.250069E+03   2.236969E+03   2.197531E+03   2.123896E+03   2.047407E+03   1.997188E+03   1.986173E+03   2.003155E+03   2.032112E+03   2.067709E+03   2.111907E+03   2.170027E+03   2.235871E+03   2.292853E+03   2.316241E+03   2.291577E+03   2.236392E+03   2.182058E+03   2.158217E+03   2.154883E+03   2.154472E+03   2.145034E+03   2.134280E+03   2.141111E+03   2.177119E+03   2.246461E+03   2.324527E+03   2.385610E+03   2.417023E+03   2.428779E+03   2.420631E+03   2.387778E+03   2.339616E+03   2.320974E+03   2.353388E+03   2.414636E+03   2.439108E+03   2.403196E+03   2.325501E+03   2.254390E+03   2.207147E+03   2.176790E+03   2.149849E+03   2.123237E+03   2.105789E+03   2.106104E+03   2.135007E+03   2.199396E+03   2.294513E+03   2.405528E+03   2.509177E+03   2.596708E+03   2.670823E+03   2.746420E+03   2.825048E+03   2.892702E+03   2.927229E+03   2.919657E+03   2.877325E+03   2.816557E+03   2.748971E+03   2.684156E+03   2.627709E+03   2.587593E+03   2.565995E+03   2.559798E+03   2.561725E+03   2.563565E+03   2.565926E+03
   2.666941E+03   2.665322E+03   2.687215E+03   2.702798E+03   2.678135E+03   2.580768E+03   2.427805E+03   2.264060E+03   2.151358E+03   2.107833E+03   2.121385E+03   2.157970E+03   2.200604E+03   2.253086E+03   2.314307E+03   2.368258E+03   2.381907E+03   2.344897E+03   2.275295E+03   2.205048E+03   2.161221E+03   2.151879E+03   2.179822E+03   2.225830E+03   2.269973E+03   2.294911E+03   2.324239E+03   2.393800E+03   2.535418E+03   2.728271E+03   2.931756E+03   3.083402E+03   3.168532E+03   3.180384E+03   3.161042E+03   3.110494E+03   3.036200E+03   2.915789E+03   2.771399E+03   2.632510E+03   2.529973E+03   2.462963E+03   2.413813E+03   2.371152E+03   2.334527E+03   2.306982E+03   2.286584E+03   2.270110E+03   2.259300E+03   2.259547E+03   2.274307E+03   2.297874E+03   2.320686E+03   2.337887E+03   2.351797E+03   2.368793E+03   2.386969E+03   2.414609E+03   2.452963E+03   2.516049E+03   2.589726E+03   2.667654E+03   2.720055E+03   2.740206E+03   2.713251E+03   2.662483E+03   2.613388E+03   2.598505E+03   2.610796E+03   2.623580E+03   2.607586E+03   2.553347E+03   2.479177E+03   2.406049E+03   2.362469E+03   2.342579E+03   2.333512E+03   2.299547E+03   2.230439E+03   2.132689E+03   2.038176E+03   1.975953E+03   1.957531E+03   1.978080E+03   2.022593E+03   2.082771E+03   2.149259E+03   2.219328E+03   2.281797E+03   2.323745E+03   2.324732E+03   2.276625E+03   2.204047E+03   2.145322E+03   2.132524E+03   2.150809E+03   2.176008E+03   2.189342E+03   2.192716E+03   2.200892E+03   2.225364E+03   2.274074E+03   2.325816E+03   2.356982E+03   2.360014E+03   2.351015E+03   2.337462E+03   2.315652E+03   2.291427E+03   2.297380E+03   2.344760E+03   2.407366E+03   2.426982E+03   2.384870E+03   2.302291E+03   2.226557E+03   2.180700E+03   2.161495E+03   2.153745E+03   2.143937E+03   2.131865E+03   2.124609E+03   2.141427E+03   2.199973E+03   2.302373E+03   2.431084E+03   2.553196E+03   2.648820E+03   2.715240E+03   2.770631E+03   2.823045E+03   2.866502E+03   2.883128E+03   2.867545E+03   2.824417E+03   2.765309E+03   2.698477E+03   2.633333E+03   2.577366E+03   2.536447E+03   2.514211E+03   2.506715E+03   2.510748E+03   2.513426E+03   2.518889E+03
   2.588971E+03   2.595885E+03   2.636612E+03   2.678299E+03   2.680782E+03   2.606996E+03   2.466900E+03   2.301399E+03   2.168903E+03   2.096351E+03   2.081317E+03   2.101248E+03   2.137380E+03   2.188217E+03   2.243031E+03   2.288230E+03   2.298738E+03   2.276749E+03   2.237106E+03   2.200494E+03   2.173416E+03   2.157380E+03   2.158862E+03   2.177641E+03   2.210302E+03   2.246324E+03   2.302140E+03   2.395844E+03   2.544321E+03   2.718121E+03   2.884362E+03   2.993018E+03   3.044527E+03   3.033539E+03   3.003237E+03   2.952332E+03   2.892977E+03   2.798436E+03   2.682730E+03   2.568793E+03   2.490219E+03   2.448271E+03   2.422414E+03   2.393292E+03   2.359465E+03   2.328121E+03   2.303045E+03   2.282716E+03   2.267092E+03   2.261577E+03   2.270069E+03   2.291372E+03   2.318683E+03   2.350288E+03   2.382250E+03   2.414979E+03   2.437078E+03   2.461152E+03   2.491331E+03   2.548505E+03   2.612003E+03   2.670576E+03   2.692730E+03   2.682812E+03   2.638903E+03   2.592414E+03   2.564842E+03   2.577092E+03   2.607613E+03   2.621564E+03   2.594746E+03   2.531344E+03   2.462181E+03   2.410329E+03   2.391331E+03   2.386749E+03   2.369547E+03   2.313992E+03   2.220110E+03   2.111138E+03   2.014074E+03   1.955048E+03   1.943114E+03   1.979684E+03   2.048285E+03   2.133333E+03   2.212867E+03   2.278985E+03   2.321235E+03   2.336955E+03   2.314527E+03   2.253141E+03   2.180096E+03   2.136296E+03   2.149095E+03   2.192661E+03   2.233470E+03   2.252126E+03   2.259273E+03   2.268862E+03   2.287764E+03   2.315638E+03   2.335775E+03   2.333073E+03   2.308999E+03   2.282730E+03   2.265350E+03   2.253635E+03   2.251276E+03   2.274870E+03   2.326530E+03   2.376845E+03   2.385652E+03   2.342455E+03   2.274307E+03   2.218436E+03   2.195130E+03   2.195693E+03   2.202812E+03   2.198628E+03   2.181811E+03   2.161481E+03   2.161166E+03   2.205597E+03   2.305322E+03   2.447394E+03   2.592387E+03   2.705199E+03   2.769355E+03   2.800809E+03   2.815857E+03   2.821509E+03   2.810686E+03   2.783169E+03   2.741701E+03   2.691166E+03   2.634293E+03   2.576502E+03   2.525377E+03   2.485898E+03   2.464225E+03   2.456420E+03   2.461468E+03   2.464444E+03   2.471111E+03