# WEL package for  MODFLOW-2005, generated by Flopy.
       134         0 
       134         0 # stress period 1
         2        63        94             0.0
         2        74        69             0.0
         1        87        47             0.0
         2        97        61             0.0
         2       105        89             0.0
         2       127        57             0.0
         2       143        83             0.0
         2       145        89             0.0
         2       149        85             0.0
         1       155        59             0.0
         2       165        37             0.0
         1       172        55             0.0
         1       185        86             0.0
         1       200        92             0.0
         2       201        51             0.0
         2       201        79             0.0
         1       216        45             0.0
         1       221        93             0.0
         1       227        77             0.0
         1       244        92             0.0
         1       250        52          -0.001
         2       250        52          -0.001
         1       250        53          -0.001
         2       250        53          -0.001
         1       250        54          -0.001
         2       250        54          -0.001
         1       250        55          -0.001
         2       250        55          -0.001
         1       250        56          -0.001
         2       250        56          -0.001
         1       250        57          -0.001
         2       250        57          -0.001
         1       250        58          -0.001
         2       250        58          -0.001
         1       250        59          -0.001
         2       250        59          -0.001
         1       250        60          -0.001
         2       250        60          -0.001
         1       250        61          -0.001
         2       250        61          -0.001
         1       250        62          -0.001
         2       250        62          -0.001
         1       250        63          -0.001
         2       250        63          -0.001
         1       250        64          -0.001
         2       250        64          -0.001
         1       250        65          -0.001
         2       250        65          -0.001
         1       250        66          -0.001
         2       250        66          -0.001
         1       250        67          -0.001
         2       250        67          -0.001
         1       250        68          -0.001
         2       250        68          -0.001
         1       250        69          -0.001
         2       250        69          -0.001
         1       250        70          -0.001
         2       250        70          -0.001
         1       250        71          -0.001
         2       250        71          -0.001
         1       250        72          -0.001
         2       250        72          -0.001
         1       250        73          -0.001
         2       250        73          -0.001
         1       250        74          -0.001
         2       250        74          -0.001
         1       250        75          -0.001
         2       250        75          -0.001
         1       250        76          -0.001
         2       250        76          -0.001
         1       250        77          -0.001
         2       250        77          -0.001
         1       250        78          -0.001
         2       250        78          -0.001
         1       250        79          -0.001
         2       250        79          -0.001
         1       250        80          -0.001
         2       250        80          -0.001
         1       250        81          -0.001
         2       250        81          -0.001
         1       250        82          -0.001
         2       250        82          -0.001
         1       250        83          -0.001
         2       250        83          -0.001
         1       250        84          -0.001
         2       250        84          -0.001
         1       250        85          -0.001
         2       250        85          -0.001
         1       250        86          -0.001
         2       250        86          -0.001
         1       250        87          -0.001
         2       250        87          -0.001
         1       250        88          -0.001
         2       250        88          -0.001
         1       250        89          -0.001
         2       250        89          -0.001
         1       250        90          -0.001
         2       250        90          -0.001
         1       250        91          -0.001
         2       250        91          -0.001
         1       250        92          -0.001
         2       250        92          -0.001
         1       250        93          -0.001
         2       250        93          -0.001
         1       250        94          -0.001
         2       250        94          -0.001
         1       250        95          -0.001
         2       250        95          -0.001
         1       250        96          -0.001
         2       250        96          -0.001
         1       250        97          -0.001
         2       250        97          -0.001
         1       250        98          -0.001
         2       250        98          -0.001
         1       250        99          -0.001
         2       250        99          -0.001
         1       250       100          -0.001
         2       250       100          -0.001
         1       250       101          -0.001
         2       250       101          -0.001
         1       250       102          -0.001
         2       250       102          -0.001
         1       250       103          -0.001
         2       250       103          -0.001
         1       250       104          -0.001
         2       250       104          -0.001
         1       250       105          -0.001
         2       250       105          -0.001
         1       250       106          -0.001
         2       250       106          -0.001
         1       250       107          -0.001
         2       250       107          -0.001
         1       250       108          -0.001
         2       250       108          -0.001
