# DIS package for  MODFLOW-2005, generated by Flopy.
         1       250       145         1         4         2
  0
CONSTANT    1.000000E+03                           #delr                          
CONSTANT    1.000000E+03                           #delc                          
INTERNAL               1 (145E15.6) -1 #model_top                     
   4.684532E+02   4.684532E+02   4.684532E+02   4.684532E+02   4.684532E+02   4.684532E+02   4.684532E+02   4.684532E+02   4.684532E+02   4.684532E+02   4.684532E+02   4.684532E+02   4.684532E+02   4.684532E+02   4.684532E+02   4.684532E+02   4.684532E+02   4.684532E+02   4.684532E+02   4.684532E+02   4.684532E+02   4.684532E+02   4.684532E+02   4.684532E+02   4.684532E+02   4.684532E+02   4.684532E+02   4.684532E+02   4.684532E+02   4.684532E+02   4.684532E+02   4.684532E+02   4.684532E+02   4.684532E+02   4.684532E+02   4.684532E+02   4.684532E+02   4.684532E+02   4.684532E+02   4.684532E+02   4.684532E+02   4.684532E+02   4.684532E+02   4.684532E+02   4.684532E+02   4.684532E+02   4.684532E+02   4.684532E+02   4.684532E+02   4.684532E+02   4.684532E+02   4.684532E+02   4.684532E+02   4.684532E+02   4.684532E+02   4.684532E+02   4.684532E+02   4.684532E+02   4.684532E+02   4.684532E+02   4.684532E+02   4.684532E+02   4.684532E+02   4.684532E+02   4.684532E+02   4.684532E+02   4.684532E+02   4.684532E+02   4.684532E+02   4.684532E+02   4.684532E+02   4.684532E+02   4.684532E+02   4.684532E+02   4.684532E+02   4.684532E+02   4.684532E+02   4.684532E+02   4.684532E+02   4.684532E+02   4.684532E+02   4.684532E+02   4.684532E+02   4.684532E+02   4.684532E+02   4.684532E+02   4.684532E+02   4.684532E+02   4.684532E+02   4.684532E+02   4.684532E+02   4.684532E+02   4.684532E+02   4.684532E+02   4.684532E+02   4.684532E+02   4.684532E+02   4.684532E+02   4.684532E+02   4.684532E+02   4.684532E+02   4.684532E+02   4.684532E+02   4.684532E+02   4.684532E+02   4.684532E+02   4.684532E+02   4.684532E+02   4.684532E+02   4.684532E+02   4.684532E+02   4.684532E+02   4.684532E+02   4.684532E+02   4.684532E+02   4.684532E+02   4.684532E+02   4.684532E+02   4.684532E+02   4.684532E+02   4.684532E+02   4.684532E+02   4.684532E+02   4.684532E+02   4.684532E+02   4.684532E+02   4.684532E+02   4.684532E+02   4.684532E+02   4.684532E+02   4.684532E+02   4.684532E+02   4.684532E+02   4.684532E+02   4.684532E+02   4.684532E+02   4.684532E+02   4.684532E+02   4.684532E+02   4.684532E+02   4.684532E+02   4.684532E+02   4.684532E+02   4.684532E+02   4.684532E+02
   4.684532E+02   4.684532E+02   4.684532E+02   4.684532E+02   4.684532E+02   4.684532E+02   4.684532E+02   4.684532E+02   4.684532E+02   4.684532E+02   4.684532E+02   4.684532E+02   4.684532E+02   4.684532E+02   4.684532E+02   4.684532E+02   4.684532E+02   4.684532E+02   4.684532E+02   4.684532E+02   4.684532E+02   4.684532E+02   4.684532E+02   4.684532E+02   4.684532E+02   4.684532E+02   4.684532E+02   4.684532E+02   4.684532E+02   4.684532E+02   4.684532E+02   4.684532E+02   4.684532E+02   4.684532E+02   4.684532E+02   4.684532E+02   4.684532E+02   4.684532E+02   4.684532E+02   4.684532E+02   4.684532E+02   4.684532E+02   4.684532E+02   4.684532E+02   4.684532E+02   4.684532E+02   4.684532E+02   4.684532E+02   4.684532E+02   4.684532E+02   4.684532E+02   4.684532E+02   4.684532E+02   4.684532E+02   4.684532E+02   4.684532E+02   4.684532E+02   4.684532E+02   4.684532E+02   4.684532E+02   4.684532E+02   4.684532E+02   4.684532E+02   4.684532E+02   4.684532E+02   4.684532E+02   4.684532E+02   4.684532E+02   4.684532E+02   4.684532E+02   4.684532E+02   4.684532E+02   4.684532E+02   4.684532E+02   4.684532E+02   4.684532E+02   4.684532E+02   4.684532E+02   4.684532E+02   4.684532E+02   4.684532E+02   4.684532E+02   4.684532E+02   4.684532E+02   4.684532E+02   4.684532E+02   4.684532E+02   4.684532E+02   4.684532E+02   4.684532E+02   4.684532E+02   4.684532E+02   4.684532E+02   4.684532E+02   4.684532E+02   4.684532E+02   4.684532E+02   4.684532E+02   4.684532E+02   4.684532E+02   4.684532E+02   4.684532E+02   4.684532E+02   4.684532E+02   4.684532E+02   4.684532E+02   4.684532E+02   4.684532E+02   4.684532E+02   4.684532E+02   4.684532E+02   4.684532E+02   4.684532E+02   4.684532E+02   4.684532E+02   4.684532E+02   4.684532E+02   4.684532E+02   4.684532E+02   4.684532E+02   4.684532E+02   4.684532E+02   4.684532E+02   4.684532E+02   4.684532E+02   4.684532E+02   4.684532E+02   4.684532E+02   4.684532E+02   4.684532E+02   4.684532E+02   4.684532E+02   4.684532E+02   4.684532E+02   4.684532E+02   4.684532E+02   4.684532E+02   4.684532E+02   4.684532E+02   4.684532E+02   4.684532E+02   4.684532E+02   4.684532E+02   4.684532E+02   4.684532E+02
   4.684532E+02   4.684532E+02   4.684532E+02   4.684532E+02   4.684532E+02   4.684532E+02   4.684532E+02   4.684532E+02   4.684532E+02   4.684532E+02   4.684532E+02   4.684532E+02   4.684532E+02   4.684532E+02   4.684532E+02   4.684532E+02   4.684532E+02   4.684532E+02   4.684532E+02   4.684532E+02   4.684532E+02   4.684532E+02   4.684532E+02   4.684532E+02   4.684532E+02   4.684532E+02   4.684532E+02   4.684532E+02   4.684532E+02   4.684532E+02   4.684532E+02   4.684532E+02   4.684532E+02   4.684532E+02   4.684532E+02   4.684532E+02   4.684532E+02   4.684532E+02   4.684532E+02   4.684532E+02   4.684532E+02   4.684532E+02   4.684532E+02   4.684532E+02   4.684532E+02   4.684532E+02   4.684532E+02   4.684532E+02   4.684532E+02   4.684532E+02   4.684532E+02   4.684532E+02   4.684532E+02   4.684532E+02   4.684532E+02   4.684532E+02   4.684532E+02   4.684532E+02   4.684532E+02   4.684532E+02   4.684532E+02   4.684532E+02   4.684532E+02   4.684532E+02   4.684532E+02   4.684532E+02   4.684532E+02   4.684532E+02   4.684532E+02   4.684532E+02   4.684532E+02   4.684532E+02   4.684532E+02   4.684532E+02   1.289353E+03   1.481357E+03   4.684532E+02   4.684532E+02   4.684532E+02   4.684532E+02   4.684532E+02   4.684532E+02   4.684532E+02   4.684532E+02   4.684532E+02   4.684532E+02   4.684532E+02   4.684532E+02   4.684532E+02   4.684532E+02   4.684532E+02   4.684532E+02   4.684532E+02   4.684532E+02   4.684532E+02   4.684532E+02   4.684532E+02   4.684532E+02   4.684532E+02   4.684532E+02   4.684532E+02   4.684532E+02   4.684532E+02   4.684532E+02   4.684532E+02   4.684532E+02   4.684532E+02   4.684532E+02   4.684532E+02   4.684532E+02   4.684532E+02   4.684532E+02   4.684532E+02   4.684532E+02   4.684532E+02   4.684532E+02   4.684532E+02   4.684532E+02   4.684532E+02   4.684532E+02   4.684532E+02   4.684532E+02   4.684532E+02   4.684532E+02   4.684532E+02   4.684532E+02   4.684532E+02   4.684532E+02   4.684532E+02   4.684532E+02   4.684532E+02   4.684532E+02   4.684532E+02   4.684532E+02   4.684532E+02   4.684532E+02   4.684532E+02   4.684532E+02   4.684532E+02   4.684532E+02   4.684532E+02   4.684532E+02   4.684532E+02   4.684532E+02   4.684532E+02
   4.684532E+02   4.684532E+02   4.684532E+02   4.684532E+02   4.684532E+02   4.684532E+02   4.684532E+02   4.684532E+02   4.684532E+02   4.684532E+02   4.684532E+02   4.684532E+02   4.684532E+02   4.684532E+02   4.684532E+02   4.684532E+02   4.684532E+02   4.684532E+02   4.684532E+02   4.684532E+02   4.684532E+02   4.684532E+02   4.684532E+02   4.684532E+02   4.684532E+02   4.684532E+02   4.684532E+02   4.684532E+02   4.684532E+02   4.684532E+02   4.684532E+02   4.684532E+02   4.684532E+02   4.684532E+02   4.684532E+02   4.684532E+02   4.684532E+02   4.684532E+02   4.684532E+02   4.684532E+02   4.684532E+02   4.684532E+02   4.684532E+02   4.684532E+02   4.684532E+02   4.684532E+02   4.684532E+02   4.684532E+02   4.684532E+02   4.684532E+02   4.684532E+02   4.684532E+02   4.684532E+02   4.684532E+02   4.684532E+02   4.684532E+02   4.684532E+02   4.684532E+02   4.684532E+02   4.684532E+02   4.684532E+02   4.684532E+02   4.684532E+02   4.684532E+02   4.684532E+02   4.684532E+02   4.684532E+02   4.684532E+02   4.684532E+02   4.684532E+02   4.684532E+02   1.444118E+03   1.386479E+03   1.444134E+03   1.346855E+03   4.684532E+02   4.684532E+02   4.684532E+02   4.684532E+02   4.684532E+02   4.684532E+02   4.684532E+02   4.684532E+02   4.684532E+02   4.684532E+02   4.684532E+02   4.684532E+02   4.684532E+02   4.684532E+02   4.684532E+02   4.684532E+02   4.684532E+02   4.684532E+02   4.684532E+02   4.684532E+02   4.684532E+02   4.684532E+02   4.684532E+02   4.684532E+02   4.684532E+02   4.684532E+02   4.684532E+02   4.684532E+02   4.684532E+02   4.684532E+02   4.684532E+02   4.684532E+02   4.684532E+02   4.684532E+02   4.684532E+02   4.684532E+02   4.684532E+02   4.684532E+02   4.684532E+02   4.684532E+02   4.684532E+02   4.684532E+02   4.684532E+02   4.684532E+02   4.684532E+02   4.684532E+02   4.684532E+02   4.684532E+02   4.684532E+02   4.684532E+02   4.684532E+02   4.684532E+02   4.684532E+02   4.684532E+02   4.684532E+02   4.684532E+02   4.684532E+02   4.684532E+02   4.684532E+02   4.684532E+02   4.684532E+02   4.684532E+02   4.684532E+02   4.684532E+02   4.684532E+02   4.684532E+02   4.684532E+02   4.684532E+02   4.684532E+02   4.684532E+02
   4.684532E+02   4.684532E+02   4.684532E+02   4.684532E+02   4.684532E+02   4.684532E+02   4.684532E+02   4.684532E+02   4.684532E+02   4.684532E+02   4.684532E+02   4.684532E+02   4.684532E+02   4.684532E+02   4.684532E+02   4.684532E+02   4.684532E+02   4.684532E+02   4.684532E+02   4.684532E+02   4.684532E+02   4.684532E+02   4.684532E+02   4.684532E+02   4.684532E+02   4.684532E+02   4.684532E+02   4.684532E+02   4.684532E+02   4.684532E+02   4.684532E+02   4.684532E+02   4.684532E+02   4.684532E+02   4.684532E+02   4.684532E+02   4.684532E+02   4.684532E+02   4.684532E+02   4.684532E+02   4.684532E+02   4.684532E+02   4.684532E+02   4.684532E+02   4.684532E+02   4.684532E+02   4.684532E+02   4.684532E+02   4.684532E+02   4.684532E+02   4.684532E+02   4.684532E+02   4.684532E+02   4.684532E+02   4.684532E+02   4.684532E+02   4.684532E+02   4.684532E+02   4.684532E+02   4.684532E+02   4.684532E+02   4.684532E+02   4.684532E+02   4.684532E+02   4.684532E+02   4.684532E+02   4.684532E+02   4.684532E+02   4.684532E+02   4.684532E+02   1.226118E+03   1.325974E+03   1.387954E+03   1.309475E+03   1.464234E+03   4.684532E+02   4.684532E+02   4.684532E+02   4.684532E+02   4.684532E+02   4.684532E+02   4.684532E+02   4.684532E+02   4.684532E+02   4.684532E+02   4.684532E+02   4.684532E+02   4.684532E+02   4.684532E+02   4.684532E+02   4.684532E+02   4.684532E+02   4.684532E+02   4.684532E+02   4.684532E+02   4.684532E+02   4.684532E+02   4.684532E+02   4.684532E+02   4.684532E+02   4.684532E+02   4.684532E+02   4.684532E+02   4.684532E+02   4.684532E+02   4.684532E+02   4.684532E+02   4.684532E+02   4.684532E+02   4.684532E+02   4.684532E+02   4.684532E+02   4.684532E+02   4.684532E+02   4.684532E+02   4.684532E+02   4.684532E+02   4.684532E+02   4.684532E+02   4.684532E+02   4.684532E+02   4.684532E+02   4.684532E+02   4.684532E+02   4.684532E+02   4.684532E+02   4.684532E+02   4.684532E+02   4.684532E+02   4.684532E+02   4.684532E+02   4.684532E+02   4.684532E+02   4.684532E+02   4.684532E+02   4.684532E+02   4.684532E+02   4.684532E+02   4.684532E+02   4.684532E+02   4.684532E+02   4.684532E+02   4.684532E+02   4.684532E+02   4.684532E+02
   4.684532E+02   4.684532E+02   4.684532E+02   4.684532E+02   4.684532E+02   4.684532E+02   4.684532E+02   4.684532E+02   4.684532E+02   4.684532E+02   4.684532E+02   4.684532E+02   4.684532E+02   4.684532E+02   4.684532E+02   4.684532E+02   4.684532E+02   4.684532E+02   4.684532E+02   4.684532E+02   4.684532E+02   4.684532E+02   4.684532E+02   4.684532E+02   4.684532E+02   4.684532E+02   4.684532E+02   4.684532E+02   4.684532E+02   4.684532E+02   4.684532E+02   4.684532E+02   4.684532E+02   4.684532E+02   4.684532E+02   4.684532E+02   4.684532E+02   4.684532E+02   4.684532E+02   4.684532E+02   4.684532E+02   4.684532E+02   4.684532E+02   4.684532E+02   4.684532E+02   4.684532E+02   4.684532E+02   4.684532E+02   4.684532E+02   4.684532E+02   4.684532E+02   4.684532E+02   4.684532E+02   4.684532E+02   4.684532E+02   4.684532E+02   4.684532E+02   4.684532E+02   4.684532E+02   4.684532E+02   4.684532E+02   4.684532E+02   4.684532E+02   4.684532E+02   4.684532E+02   4.684532E+02   4.684532E+02   4.684532E+02   4.684532E+02   4.684532E+02   1.230881E+03   1.187318E+03   1.120347E+03   1.233698E+03   1.241918E+03   1.343571E+03   4.684532E+02   4.684532E+02   4.684532E+02   4.684532E+02   4.684532E+02   4.684532E+02   4.684532E+02   4.684532E+02   4.684532E+02   4.684532E+02   4.684532E+02   4.684532E+02   4.684532E+02   4.684532E+02   4.684532E+02   4.684532E+02   4.684532E+02   4.684532E+02   4.684532E+02   4.684532E+02   4.684532E+02   4.684532E+02   4.684532E+02   4.684532E+02   4.684532E+02   4.684532E+02   4.684532E+02   4.684532E+02   4.684532E+02   4.684532E+02   4.684532E+02   4.684532E+02   4.684532E+02   4.684532E+02   4.684532E+02   4.684532E+02   4.684532E+02   4.684532E+02   4.684532E+02   4.684532E+02   4.684532E+02   4.684532E+02   4.684532E+02   4.684532E+02   4.684532E+02   4.684532E+02   4.684532E+02   4.684532E+02   4.684532E+02   4.684532E+02   4.684532E+02   4.684532E+02   4.684532E+02   4.684532E+02   4.684532E+02   4.684532E+02   4.684532E+02   4.684532E+02   4.684532E+02   4.684532E+02   4.684532E+02   4.684532E+02   4.684532E+02   4.684532E+02   4.684532E+02   4.684532E+02   4.684532E+02   4.684532E+02   4.684532E+02
   4.684532E+02   4.684532E+02   4.684532E+02   4.684532E+02   4.684532E+02   4.684532E+02   4.684532E+02   4.684532E+02   4.684532E+02   4.684532E+02   4.684532E+02   4.684532E+02   4.684532E+02   4.684532E+02   4.684532E+02   4.684532E+02   4.684532E+02   4.684532E+02   4.684532E+02   4.684532E+02   4.684532E+02   4.684532E+02   4.684532E+02   4.684532E+02   4.684532E+02   4.684532E+02   4.684532E+02   4.684532E+02   4.684532E+02   4.684532E+02   4.684532E+02   4.684532E+02   4.684532E+02   4.684532E+02   4.684532E+02   4.684532E+02   4.684532E+02   4.684532E+02   4.684532E+02   4.684532E+02   4.684532E+02   4.684532E+02   4.684532E+02   4.684532E+02   4.684532E+02   4.684532E+02   4.684532E+02   4.684532E+02   4.684532E+02   4.684532E+02   4.684532E+02   4.684532E+02   4.684532E+02   4.684532E+02   4.684532E+02   4.684532E+02   4.684532E+02   4.684532E+02   4.684532E+02   4.684532E+02   4.684532E+02   4.684532E+02   4.684532E+02   4.684532E+02   4.684532E+02   4.684532E+02   4.684532E+02   4.684532E+02   4.684532E+02   1.194384E+03   1.387035E+03   1.145814E+03   1.501307E+03   1.438764E+03   1.316468E+03   1.507111E+03   4.684532E+02   4.684532E+02   4.684532E+02   4.684532E+02   4.684532E+02   4.684532E+02   4.684532E+02   4.684532E+02   4.684532E+02   4.684532E+02   4.684532E+02   4.684532E+02   4.684532E+02   4.684532E+02   4.684532E+02   4.684532E+02   4.684532E+02   4.684532E+02   4.684532E+02   4.684532E+02   4.684532E+02   4.684532E+02   4.684532E+02   4.684532E+02   4.684532E+02   4.684532E+02   4.684532E+02   4.684532E+02   4.684532E+02   4.684532E+02   4.684532E+02   4.684532E+02   4.684532E+02   4.684532E+02   4.684532E+02   4.684532E+02   4.684532E+02   4.684532E+02   4.684532E+02   4.684532E+02   4.684532E+02   4.684532E+02   4.684532E+02   4.684532E+02   4.684532E+02   4.684532E+02   4.684532E+02   4.684532E+02   4.684532E+02   4.684532E+02   4.684532E+02   4.684532E+02   4.684532E+02   4.684532E+02   4.684532E+02   4.684532E+02   4.684532E+02   4.684532E+02   4.684532E+02   4.684532E+02   4.684532E+02   4.684532E+02   4.684532E+02   4.684532E+02   4.684532E+02   4.684532E+02   4.684532E+02   4.684532E+02   4.684532E+02
   4.684532E+02   4.684532E+02   4.684532E+02   4.684532E+02   4.684532E+02   4.684532E+02   4.684532E+02   4.684532E+02   4.684532E+02   4.684532E+02   4.684532E+02   4.684532E+02   4.684532E+02   4.684532E+02   4.684532E+02   4.684532E+02   4.684532E+02   4.684532E+02   4.684532E+02   4.684532E+02   4.684532E+02   4.684532E+02   4.684532E+02   4.684532E+02   4.684532E+02   4.684532E+02   4.684532E+02   4.684532E+02   4.684532E+02   4.684532E+02   4.684532E+02   4.684532E+02   4.684532E+02   4.684532E+02   4.684532E+02   4.684532E+02   4.684532E+02   4.684532E+02   4.684532E+02   4.684532E+02   4.684532E+02   4.684532E+02   4.684532E+02   4.684532E+02   4.684532E+02   4.684532E+02   4.684532E+02   4.684532E+02   4.684532E+02   4.684532E+02   4.684532E+02   4.684532E+02   4.684532E+02   4.684532E+02   4.684532E+02   4.684532E+02   4.684532E+02   4.684532E+02   4.684532E+02   4.684532E+02   4.684532E+02   4.684532E+02   4.684532E+02   4.684532E+02   4.684532E+02   4.684532E+02   4.684532E+02   4.684532E+02   4.684532E+02   1.244364E+03   1.138051E+03   1.164127E+03   1.389646E+03   1.525821E+03   1.527035E+03   4.684532E+02   4.684532E+02   4.684532E+02   4.684532E+02   4.684532E+02   4.684532E+02   4.684532E+02   4.684532E+02   4.684532E+02   4.684532E+02   4.684532E+02   4.684532E+02   4.684532E+02   4.684532E+02   4.684532E+02   4.684532E+02   4.684532E+02   4.684532E+02   4.684532E+02   4.684532E+02   4.684532E+02   4.684532E+02   4.684532E+02   4.684532E+02   4.684532E+02   4.684532E+02   4.684532E+02   4.684532E+02   4.684532E+02   4.684532E+02   4.684532E+02   4.684532E+02   4.684532E+02   4.684532E+02   4.684532E+02   4.684532E+02   4.684532E+02   4.684532E+02   4.684532E+02   4.684532E+02   4.684532E+02   4.684532E+02   4.684532E+02   4.684532E+02   4.684532E+02   4.684532E+02   4.684532E+02   4.684532E+02   4.684532E+02   4.684532E+02   4.684532E+02   4.684532E+02   4.684532E+02   4.684532E+02   4.684532E+02   4.684532E+02   4.684532E+02   4.684532E+02   4.684532E+02   4.684532E+02   4.684532E+02   4.684532E+02   4.684532E+02   4.684532E+02   4.684532E+02   4.684532E+02   4.684532E+02   4.684532E+02   4.684532E+02   4.684532E+02
   4.684532E+02   4.684532E+02   4.684532E+02   4.684532E+02   4.684532E+02   4.684532E+02   4.684532E+02   4.684532E+02   4.684532E+02   4.684532E+02   4.684532E+02   4.684532E+02   4.684532E+02   4.684532E+02   4.684532E+02   4.684532E+02   4.684532E+02   4.684532E+02   4.684532E+02   4.684532E+02   4.684532E+02   4.684532E+02   4.684532E+02   4.684532E+02   4.684532E+02   4.684532E+02   4.684532E+02   4.684532E+02   4.684532E+02   4.684532E+02   4.684532E+02   4.684532E+02   4.684532E+02   4.684532E+02   4.684532E+02   4.684532E+02   4.684532E+02   4.684532E+02   4.684532E+02   4.684532E+02   4.684532E+02   4.684532E+02   4.684532E+02   4.684532E+02   4.684532E+02   4.684532E+02   4.684532E+02   4.684532E+02   4.684532E+02   4.684532E+02   4.684532E+02   4.684532E+02   4.684532E+02   4.684532E+02   4.684532E+02   4.684532E+02   4.684532E+02   4.684532E+02   4.684532E+02   4.684532E+02   4.684532E+02   4.684532E+02   4.684532E+02   4.684532E+02   4.684532E+02   4.684532E+02   4.684532E+02   4.684532E+02   1.171218E+03   1.226338E+03   1.027678E+03   1.205341E+03   1.376552E+03   1.296434E+03   4.684532E+02   4.684532E+02   4.684532E+02   4.684532E+02   4.684532E+02   4.684532E+02   4.684532E+02   4.684532E+02   4.684532E+02   4.684532E+02   4.684532E+02   4.684532E+02   4.684532E+02   4.684532E+02   4.684532E+02   4.684532E+02   4.684532E+02   4.684532E+02   4.684532E+02   4.684532E+02   4.684532E+02   4.684532E+02   4.684532E+02   4.684532E+02   4.684532E+02   4.684532E+02   4.684532E+02   4.684532E+02   4.684532E+02   4.684532E+02   4.684532E+02   4.684532E+02   4.684532E+02   4.684532E+02   4.684532E+02   4.684532E+02   4.684532E+02   4.684532E+02   4.684532E+02   4.684532E+02   4.684532E+02   4.684532E+02   4.684532E+02   4.684532E+02   4.684532E+02   4.684532E+02   4.684532E+02   4.684532E+02   4.684532E+02   4.684532E+02   4.684532E+02   4.684532E+02   4.684532E+02   4.684532E+02   4.684532E+02   4.684532E+02   4.684532E+02   4.684532E+02   4.684532E+02   4.684532E+02   4.684532E+02   4.684532E+02   4.684532E+02   4.684532E+02   4.684532E+02   4.684532E+02   4.684532E+02   4.684532E+02   4.684532E+02   4.684532E+02   4.684532E+02
   4.684532E+02   4.684532E+02   4.684532E+02   4.684532E+02   4.684532E+02   4.684532E+02   4.684532E+02   4.684532E+02   4.684532E+02   4.684532E+02   4.684532E+02   4.684532E+02   4.684532E+02   4.684532E+02   4.684532E+02   4.684532E+02   4.684532E+02   4.684532E+02   4.684532E+02   4.684532E+02   4.684532E+02   4.684532E+02   4.684532E+02   4.684532E+02   4.684532E+02   4.684532E+02   4.684532E+02   4.684532E+02   4.684532E+02   4.684532E+02   4.684532E+02   4.684532E+02   4.684532E+02   4.684532E+02   4.684532E+02   4.684532E+02   4.684532E+02   4.684532E+02   4.684532E+02   4.684532E+02   4.684532E+02   4.684532E+02   4.684532E+02   4.684532E+02   4.684532E+02   4.684532E+02   4.684532E+02   4.684532E+02   4.684532E+02   4.684532E+02   4.684532E+02   4.684532E+02   4.684532E+02   4.684532E+02   4.684532E+02   4.684532E+02   4.684532E+02   4.684532E+02   4.684532E+02   4.684532E+02   4.684532E+02   4.684532E+02   4.684532E+02   4.684532E+02   4.684532E+02   4.684532E+02   4.684532E+02   4.684532E+02   1.255107E+03   1.059157E+03   1.059491E+03   1.212780E+03   1.254021E+03   1.383422E+03   4.684532E+02   4.684532E+02   4.684532E+02   4.684532E+02   4.684532E+02   4.684532E+02   4.684532E+02   4.684532E+02   4.684532E+02   4.684532E+02   4.684532E+02   4.684532E+02   4.684532E+02   4.684532E+02   4.684532E+02   4.684532E+02   4.684532E+02   4.684532E+02   4.684532E+02   4.684532E+02   4.684532E+02   4.684532E+02   4.684532E+02   4.684532E+02   4.684532E+02   4.684532E+02   4.684532E+02   4.684532E+02   4.684532E+02   4.684532E+02   4.684532E+02   4.684532E+02   4.684532E+02   4.684532E+02   4.684532E+02   4.684532E+02   4.684532E+02   4.684532E+02   4.684532E+02   4.684532E+02   4.684532E+02   4.684532E+02   4.684532E+02   4.684532E+02   4.684532E+02   4.684532E+02   4.684532E+02   4.684532E+02   4.684532E+02   4.684532E+02   4.684532E+02   4.684532E+02   4.684532E+02   4.684532E+02   4.684532E+02   4.684532E+02   4.684532E+02   4.684532E+02   4.684532E+02   4.684532E+02   4.684532E+02   4.684532E+02   4.684532E+02   4.684532E+02   4.684532E+02   4.684532E+02   4.684532E+02   4.684532E+02   4.684532E+02   4.684532E+02   4.684532E+02
   4.684532E+02   4.684532E+02   4.684532E+02   4.684532E+02   4.684532E+02   4.684532E+02   4.684532E+02   4.684532E+02   4.684532E+02   4.684532E+02   4.684532E+02   4.684532E+02   4.684532E+02   4.684532E+02   4.684532E+02   4.684532E+02   4.684532E+02   4.684532E+02   4.684532E+02   4.684532E+02   4.684532E+02   4.684532E+02   4.684532E+02   4.684532E+02   4.684532E+02   4.684532E+02   4.684532E+02   4.684532E+02   4.684532E+02   4.684532E+02   4.684532E+02   4.684532E+02   4.684532E+02   4.684532E+02   4.684532E+02   4.684532E+02   4.684532E+02   4.684532E+02   4.684532E+02   4.684532E+02   4.684532E+02   4.684532E+02   4.684532E+02   4.684532E+02   4.684532E+02   4.684532E+02   4.684532E+02   4.684532E+02   4.684532E+02   4.684532E+02   4.684532E+02   4.684532E+02   4.684532E+02   4.684532E+02   4.684532E+02   4.684532E+02   4.684532E+02   4.684532E+02   4.684532E+02   4.684532E+02   4.684532E+02   4.684532E+02   4.684532E+02   4.684532E+02   4.684532E+02   4.684532E+02   4.684532E+02   4.684532E+02   1.415376E+03   1.332109E+03   1.172882E+03   1.267702E+03   1.297564E+03   1.171610E+03   1.228554E+03   4.684532E+02   4.684532E+02   4.684532E+02   4.684532E+02   4.684532E+02   4.684532E+02   4.684532E+02   4.684532E+02   4.684532E+02   4.684532E+02   4.684532E+02   4.684532E+02   4.684532E+02   4.684532E+02   4.684532E+02   4.684532E+02   4.684532E+02   4.684532E+02   4.684532E+02   4.684532E+02   4.684532E+02   4.684532E+02   4.684532E+02   4.684532E+02   4.684532E+02   4.684532E+02   4.684532E+02   4.684532E+02   4.684532E+02   4.684532E+02   4.684532E+02   4.684532E+02   4.684532E+02   4.684532E+02   4.684532E+02   4.684532E+02   4.684532E+02   4.684532E+02   4.684532E+02   4.684532E+02   4.684532E+02   4.684532E+02   4.684532E+02   4.684532E+02   4.684532E+02   4.684532E+02   4.684532E+02   4.684532E+02   4.684532E+02   4.684532E+02   4.684532E+02   4.684532E+02   4.684532E+02   4.684532E+02   4.684532E+02   4.684532E+02   4.684532E+02   4.684532E+02   4.684532E+02   4.684532E+02   4.684532E+02   4.684532E+02   4.684532E+02   4.684532E+02   4.684532E+02   4.684532E+02   4.684532E+02   4.684532E+02   4.684532E+02   4.684532E+02
   4.684532E+02   4.684532E+02   4.684532E+02   4.684532E+02   4.684532E+02   4.684532E+02   4.684532E+02   4.684532E+02   4.684532E+02   4.684532E+02   4.684532E+02   4.684532E+02   4.684532E+02   4.684532E+02   4.684532E+02   4.684532E+02   4.684532E+02   4.684532E+02   4.684532E+02   4.684532E+02   4.684532E+02   4.684532E+02   4.684532E+02   4.684532E+02   4.684532E+02   4.684532E+02   4.684532E+02   4.684532E+02   4.684532E+02   4.684532E+02   4.684532E+02   4.684532E+02   4.684532E+02   4.684532E+02   4.684532E+02   4.684532E+02   4.684532E+02   4.684532E+02   4.684532E+02   4.684532E+02   4.684532E+02   4.684532E+02   4.684532E+02   4.684532E+02   4.684532E+02   4.684532E+02   4.684532E+02   4.684532E+02   4.684532E+02   4.684532E+02   4.684532E+02   4.684532E+02   4.684532E+02   4.684532E+02   4.684532E+02   4.684532E+02   4.684532E+02   4.684532E+02   4.684532E+02   4.684532E+02   4.684532E+02   4.684532E+02   4.684532E+02   4.684532E+02   4.684532E+02   4.684532E+02   4.684532E+02   4.684532E+02   1.516460E+03   1.167225E+03   9.561791E+02   1.147448E+03   1.183883E+03   1.114270E+03   4.684532E+02   4.684532E+02   4.684532E+02   4.684532E+02   4.684532E+02   4.684532E+02   4.684532E+02   4.684532E+02   4.684532E+02   4.684532E+02   4.684532E+02   4.684532E+02   4.684532E+02   4.684532E+02   4.684532E+02   4.684532E+02   4.684532E+02   4.684532E+02   4.684532E+02   4.684532E+02   4.684532E+02   4.684532E+02   4.684532E+02   4.684532E+02   4.684532E+02   4.684532E+02   4.684532E+02   4.684532E+02   4.684532E+02   4.684532E+02   4.684532E+02   4.684532E+02   4.684532E+02   4.684532E+02   4.684532E+02   4.684532E+02   4.684532E+02   4.684532E+02   4.684532E+02   4.684532E+02   4.684532E+02   4.684532E+02   4.684532E+02   4.684532E+02   4.684532E+02   4.684532E+02   4.684532E+02   4.684532E+02   4.684532E+02   4.684532E+02   4.684532E+02   4.684532E+02   4.684532E+02   4.684532E+02   4.684532E+02   4.684532E+02   4.684532E+02   4.684532E+02   4.684532E+02   4.684532E+02   4.684532E+02   4.684532E+02   4.684532E+02   4.684532E+02   4.684532E+02   4.684532E+02   4.684532E+02   4.684532E+02   4.684532E+02   4.684532E+02   4.684532E+02
   4.684532E+02   4.684532E+02   4.684532E+02   4.684532E+02   4.684532E+02   4.684532E+02   4.684532E+02   4.684532E+02   4.684532E+02   4.684532E+02   4.684532E+02   4.684532E+02   4.684532E+02   4.684532E+02   4.684532E+02   4.684532E+02   4.684532E+02   4.684532E+02   4.684532E+02   4.684532E+02   4.684532E+02   4.684532E+02   4.684532E+02   4.684532E+02   4.684532E+02   4.684532E+02   4.684532E+02   4.684532E+02   4.684532E+02   4.684532E+02   4.684532E+02   4.684532E+02   4.684532E+02   4.684532E+02   4.684532E+02   4.684532E+02   4.684532E+02   4.684532E+02   4.684532E+02   4.684532E+02   4.684532E+02   4.684532E+02   4.684532E+02   4.684532E+02   4.684532E+02   4.684532E+02   4.684532E+02   4.684532E+02   4.684532E+02   4.684532E+02   4.684532E+02   4.684532E+02   4.684532E+02   4.684532E+02   4.684532E+02   4.684532E+02   4.684532E+02   4.684532E+02   4.684532E+02   4.684532E+02   4.684532E+02   4.684532E+02   4.684532E+02   4.684532E+02   4.684532E+02   4.684532E+02   4.684532E+02   4.684532E+02   1.555918E+03   1.114659E+03   1.040522E+03   1.316273E+03   1.048354E+03   1.207893E+03   4.684532E+02   4.684532E+02   4.684532E+02   4.684532E+02   4.684532E+02   4.684532E+02   4.684532E+02   4.684532E+02   4.684532E+02   4.684532E+02   4.684532E+02   4.684532E+02   4.684532E+02   4.684532E+02   4.684532E+02   4.684532E+02   4.684532E+02   4.684532E+02   4.684532E+02   4.684532E+02   4.684532E+02   4.684532E+02   4.684532E+02   4.684532E+02   4.684532E+02   4.684532E+02   4.684532E+02   4.684532E+02   4.684532E+02   4.684532E+02   4.684532E+02   4.684532E+02   4.684532E+02   4.684532E+02   4.684532E+02   4.684532E+02   4.684532E+02   4.684532E+02   4.684532E+02   4.684532E+02   4.684532E+02   4.684532E+02   4.684532E+02   4.684532E+02   4.684532E+02   4.684532E+02   4.684532E+02   4.684532E+02   4.684532E+02   4.684532E+02   4.684532E+02   4.684532E+02   4.684532E+02   4.684532E+02   4.684532E+02   4.684532E+02   4.684532E+02   4.684532E+02   4.684532E+02   4.684532E+02   4.684532E+02   4.684532E+02   4.684532E+02   4.684532E+02   4.684532E+02   4.684532E+02   4.684532E+02   4.684532E+02   4.684532E+02   4.684532E+02   4.684532E+02