# STR package for  MODFLOW-2005, generated by Flopy.
194 1 0 0 0 86400.0 53 53 
       194         1         1  # stress period 1
1 56 71 1 0 4000.0 794.0882568359375 173.0 792.5882568359375 793.5882568359375 
1 57 71 1 1 4000.0 783.2765502929688 173.0 781.7765502929688 782.7765502929688 
1 58 71 1 2 4000.0 772.6107177734375 173.0 771.1107177734375 772.1107177734375 
1 59 71 1 3 4000.0 768.7838134765625 173.0 767.2838134765625 768.2838134765625 
1 60 71 1 4 4000.0 752.8621826171875 173.0 751.3621826171875 752.3621826171875 
1 61 71 1 5 4000.0 748.1033935546875 173.0 746.6033935546875 747.6033935546875 
1 62 71 1 6 4000.0 768.2890014648438 173.0 766.7890014648438 767.7890014648438 
1 63 71 1 7 4000.0 788.8543701171875 173.0 787.3543701171875 788.3543701171875 
1 64 71 1 8 4000.0 798.8385620117188 173.0 797.3385620117188 798.3385620117188 
1 65 71 1 9 4000.0 799.0479736328125 173.0 797.5479736328125 798.5479736328125 
1 66 71 1 10 4000.0 792.751708984375 173.0 791.251708984375 792.251708984375 
1 67 71 1 11 4000.0 787.57568359375 173.0 786.07568359375 787.07568359375 
1 68 71 1 12 4000.0 790.8866577148438 173.0 789.3866577148438 790.3866577148438 
1 69 71 1 13 4000.0 798.0603637695312 173.0 796.5603637695312 797.5603637695312 
1 70 71 1 14 4000.0 801.9432983398438 173.0 800.4432983398438 801.4432983398438 
1 71 71 1 15 4000.0 803.537109375 173.0 802.037109375 803.037109375 
1 72 71 1 16 4000.0 802.9207763671875 173.0 801.4207763671875 802.4207763671875 
1 73 71 1 17 4000.0 798.966552734375 173.0 797.466552734375 798.466552734375 
1 74 71 1 18 4000.0 786.3709716796875 173.0 784.8709716796875 785.8709716796875 
1 75 71 1 19 4000.0 764.7382202148438 173.0 763.2382202148438 764.2382202148438 
1 76 71 1 20 4000.0 747.0286254882812 173.0 745.5286254882812 746.5286254882812 
1 77 71 1 21 4000.0 738.2562255859375 173.0 736.7562255859375 737.7562255859375 
1 78 71 1 22 4000.0 734.9848022460938 173.0 733.4848022460938 734.4848022460938 
1 79 71 1 23 4000.0 739.6708984375 173.0 738.1708984375 739.1708984375 
1 80 71 1 24 4000.0 747.9514770507812 173.0 746.4514770507812 747.4514770507812 
1 81 71 1 25 4000.0 751.2786865234375 173.0 749.7786865234375 750.7786865234375 
1 82 71 1 26 4000.0 752.6434326171875 173.0 751.1434326171875 752.1434326171875 
1 83 71 1 27 4000.0 760.0525512695312 173.0 758.5525512695312 759.5525512695312 
1 84 71 1 28 4000.0 773.9848022460938 173.0 772.4848022460938 773.4848022460938 
1 85 71 1 29 4000.0 783.9497680664062 173.0 782.4497680664062 783.4497680664062 
1 86 71 1 30 4000.0 786.1668701171875 173.0 784.6668701171875 785.6668701171875 
1 87 71 1 31 4000.0 789.2504272460938 173.0 787.7504272460938 788.7504272460938 
1 88 71 1 32 4000.0 795.501220703125 173.0 794.001220703125 795.001220703125 
1 89 71 1 33 4000.0 795.6932373046875 173.0 794.1932373046875 795.1932373046875 
1 90 71 1 34 4000.0 786.5823364257812 173.0 785.0823364257812 786.0823364257812 
1 91 71 1 35 4000.0 777.12744140625 173.0 775.62744140625 776.62744140625 
1 92 71 1 36 4000.0 766.0643920898438 173.0 764.5643920898438 765.5643920898438 
1 93 71 1 37 4000.0 747.8201904296875 173.0 746.3201904296875 747.3201904296875 
1 94 71 1 38 4000.0 731.7103271484375 173.0 730.2103271484375 731.2103271484375 
1 95 71 1 39 4000.0 723.1607666015625 173.0 721.6607666015625 722.6607666015625 
1 96 71 1 40 4000.0 715.902587890625 173.0 714.402587890625 715.402587890625 
1 97 71 1 41 4000.0 710.023193359375 173.0 708.523193359375 709.523193359375 
1 98 71 1 42 4000.0 710.048828125 173.0 708.548828125 709.548828125 
1 99 71 1 43 4000.0 711.6651611328125 173.0 710.1651611328125 711.1651611328125 
1 100 71 1 44 4000.0 708.8121948242188 173.0 707.3121948242188 708.3121948242188 
1 101 71 1 45 4000.0 703.21728515625 173.0 701.71728515625 702.71728515625 
1 102 71 1 46 4000.0 696.1294555664062 173.0 694.6294555664062 695.6294555664062 
1 103 71 1 47 4000.0 693.0259399414062 173.0 691.5259399414062 692.5259399414062 
1 104 71 1 48 4000.0 696.7489013671875 173.0 695.2489013671875 696.2489013671875 
1 105 71 1 49 4000.0 697.8954467773438 173.0 696.3954467773438 697.3954467773438 
1 106 71 1 50 4000.0 696.402099609375 173.0 694.902099609375 695.902099609375 
1 107 71 1 51 4000.0 696.1092529296875 173.0 694.6092529296875 695.6092529296875 
1 108 71 1 52 4000.0 694.8745727539062 173.0 693.3745727539062 694.3745727539062 
1 109 71 1 53 4000.0 693.65283203125 173.0 692.15283203125 693.15283203125 
1 110 71 1 54 4000.0 692.52783203125 173.0 691.02783203125 692.02783203125 
1 111 71 1 55 4000.0 689.8028564453125 173.0 688.3028564453125 689.3028564453125 
1 112 71 1 56 4000.0 687.2786254882812 173.0 685.7786254882812 686.7786254882812 
1 113 71 1 57 4000.0 686.8029174804688 173.0 685.3029174804688 686.3029174804688 
1 114 71 1 58 4000.0 686.8707275390625 173.0 685.3707275390625 686.3707275390625 
1 115 71 1 59 4000.0 686.4119262695312 173.0 684.9119262695312 685.9119262695312 
1 116 71 1 60 4000.0 685.502685546875 173.0 684.002685546875 685.002685546875 
1 117 71 1 61 4000.0 684.7261962890625 173.0 683.2261962890625 684.2261962890625 
1 118 71 1 62 4000.0 684.5361328125 173.0 683.0361328125 684.0361328125 
1 119 71 1 63 4000.0 683.851806640625 173.0 682.351806640625 683.351806640625 
1 120 71 1 64 4000.0 682.5888671875 173.0 681.0888671875 682.0888671875 
1 121 71 1 65 4000.0 681.2655639648438 173.0 679.7655639648438 680.7655639648438 
1 122 71 1 66 4000.0 680.5728149414062 173.0 679.0728149414062 680.0728149414062 
1 123 71 1 67 4000.0 680.7131958007812 173.0 679.2131958007812 680.2131958007812 
1 124 71 1 68 4000.0 680.507568359375 173.0 679.007568359375 680.007568359375 
1 125 71 1 69 4000.0 679.888427734375 173.0 678.388427734375 679.388427734375 
1 126 71 1 70 4000.0 679.0036010742188 173.0 677.5036010742188 678.5036010742188 
1 127 71 1 71 4000.0 679.56103515625 173.0 678.06103515625 679.06103515625 
1 128 71 1 72 4000.0 681.8964233398438 173.0 680.3964233398438 681.3964233398438 
1 129 71 1 73 4000.0 681.2025756835938 173.0 679.7025756835938 680.7025756835938 
1 130 71 1 74 4000.0 678.642333984375 173.0 677.142333984375 678.142333984375 
1 131 71 1 75 4000.0 680.3573608398438 173.0 678.8573608398438 679.8573608398438 
1 132 71 1 76 4000.0 681.4898681640625 173.0 679.9898681640625 680.9898681640625 
1 133 71 1 77 4000.0 676.6837768554688 173.0 675.1837768554688 676.1837768554688 
1 134 71 1 78 4000.0 671.7775268554688 173.0 670.2775268554688 671.2775268554688 
1 135 71 1 79 4000.0 671.5291748046875 173.0 670.0291748046875 671.0291748046875 
1 136 71 1 80 4000.0 672.91552734375 173.0 671.41552734375 672.41552734375 
1 137 71 1 81 4000.0 674.0396728515625 173.0 672.5396728515625 673.5396728515625 
1 138 71 1 82 4000.0 674.162109375 173.0 672.662109375 673.662109375 
1 139 71 1 83 4000.0 671.1212768554688 173.0 669.6212768554688 670.6212768554688 
1 140 71 1 84 4000.0 668.1234741210938 173.0 666.6234741210938 667.6234741210938 
1 141 71 1 85 4000.0 664.5018920898438 173.0 663.0018920898438 664.0018920898438 
1 142 71 1 86 4000.0 660.243408203125 173.0 658.743408203125 659.743408203125 
1 143 71 1 87 4000.0 659.3963623046875 173.0 657.8963623046875 658.8963623046875 
1 144 71 1 88 4000.0 659.5025634765625 173.0 658.0025634765625 659.0025634765625 
1 145 71 1 89 4000.0 659.48779296875 173.0 657.98779296875 658.98779296875 
1 146 71 1 90 4000.0 659.4729614257812 173.0 657.9729614257812 658.9729614257812 
1 147 71 1 91 4000.0 658.5851440429688 173.0 657.0851440429688 658.0851440429688 
1 148 71 1 92 4000.0 658.5364379882812 173.0 657.0364379882812 658.0364379882812 
1 149 71 1 93 4000.0 658.5057373046875 173.0 657.0057373046875 658.0057373046875 
1 150 71 1 94 4000.0 657.130859375 173.0 655.630859375 656.630859375 
1 151 71 1 95 4000.0 656.5558471679688 173.0 655.0558471679688 656.0558471679688 
1 152 71 1 96 4000.0 656.8263549804688 173.0 655.3263549804688 656.3263549804688 
1 153 71 1 97 4000.0 656.0877685546875 173.0 654.5877685546875 655.5877685546875 
1 154 71 1 98 4000.0 654.9181518554688 173.0 653.4181518554688 654.4181518554688 
1 155 71 1 99 4000.0 654.29248046875 173.0 652.79248046875 653.79248046875 
1 156 71 1 100 4000.0 653.6531372070312 173.0 652.1531372070312 653.1531372070312 
1 157 71 1 101 4000.0 652.2987060546875 173.0 650.7987060546875 651.7987060546875 
1 158 71 1 102 4000.0 650.8820190429688 173.0 649.3820190429688 650.3820190429688 
1 159 71 1 103 4000.0 650.0142822265625 173.0 648.5142822265625 649.5142822265625 
1 160 71 1 104 4000.0 648.79541015625 173.0 647.29541015625 648.29541015625 
1 161 71 1 105 4000.0 647.2506103515625 173.0 645.7506103515625 646.7506103515625 
1 162 71 1 106 4000.0 645.972412109375 173.0 644.472412109375 645.472412109375 
1 163 71 1 107 4000.0 644.6675415039062 173.0 643.1675415039062 644.1675415039062 
1 164 71 1 108 4000.0 643.3377685546875 173.0 641.8377685546875 642.8377685546875 
1 165 71 1 109 4000.0 642.117431640625 173.0 640.617431640625 641.617431640625 
1 166 71 1 110 4000.0 641.3497924804688 173.0 639.8497924804688 640.8497924804688 
1 167 71 1 111 4000.0 640.7172241210938 173.0 639.2172241210938 640.2172241210938 
1 168 71 1 112 4000.0 639.4645385742188 173.0 637.9645385742188 638.9645385742188 
1 169 71 1 113 4000.0 638.0497436523438 173.0 636.5497436523438 637.5497436523438 
1 170 71 1 114 4000.0 636.67041015625 173.0 635.17041015625 636.17041015625 
1 171 71 1 115 4000.0 635.2810668945312 173.0 633.7810668945312 634.7810668945312 
1 172 71 1 116 4000.0 633.9603881835938 173.0 632.4603881835938 633.4603881835938 
1 173 71 1 117 4000.0 632.709228515625 173.0 631.209228515625 632.209228515625 
1 174 71 1 118 4000.0 631.4527587890625 173.0 629.9527587890625 630.9527587890625 
1 175 71 1 119 4000.0 630.6664428710938 173.0 629.1664428710938 630.1664428710938 
1 176 71 1 120 4000.0 631.1141967773438 173.0 629.6141967773438 630.6141967773438 
1 177 71 1 121 4000.0 631.7201538085938 173.0 630.2201538085938 631.2201538085938 
1 178 71 1 122 4000.0 631.324462890625 173.0 629.824462890625 630.824462890625 
1 179 71 1 123 4000.0 630.21044921875 173.0 628.71044921875 629.71044921875 
1 180 71 1 124 4000.0 629.131591796875 173.0 627.631591796875 628.631591796875 
1 181 71 1 125 4000.0 628.1697998046875 173.0 626.6697998046875 627.6697998046875 
1 182 71 1 126 4000.0 627.7332763671875 173.0 626.2332763671875 627.2332763671875 
1 183 71 1 127 4000.0 628.0699462890625 173.0 626.5699462890625 627.5699462890625 
1 184 71 1 128 4000.0 627.9532470703125 173.0 626.4532470703125 627.4532470703125 
1 185 71 1 129 4000.0 627.4165649414062 173.0 625.9165649414062 626.9165649414062 
1 186 71 1 130 4000.0 626.603759765625 173.0 625.103759765625 626.103759765625 
1 187 71 1 131 4000.0 625.9003295898438 173.0 624.4003295898438 625.4003295898438 
1 188 71 1 132 4000.0 625.6912231445312 173.0 624.1912231445312 625.1912231445312 
1 189 71 1 133 4000.0 624.6812744140625 173.0 623.1812744140625 624.1812744140625 
1 190 71 1 134 4000.0 623.5979614257812 173.0 622.0979614257812 623.0979614257812 
1 191 71 1 135 4000.0 623.21484375 173.0 621.71484375 622.71484375 
1 192 71 1 136 4000.0 622.6400756835938 173.0 621.1400756835938 622.1400756835938 
1 193 71 1 137 4000.0 621.952880859375 173.0 620.452880859375 621.452880859375 
1 194 71 1 138 4000.0 621.6312255859375 173.0 620.1312255859375 621.1312255859375 
1 195 71 1 139 4000.0 621.5194091796875 173.0 620.0194091796875 621.0194091796875 
1 196 71 1 140 4000.0 621.1016845703125 173.0 619.6016845703125 620.6016845703125 
1 197 71 1 141 4000.0 620.4351196289062 173.0 618.9351196289062 619.9351196289062 
1 198 71 1 142 4000.0 619.9743041992188 173.0 618.4743041992188 619.4743041992188 
1 199 71 1 143 4000.0 619.556884765625 173.0 618.056884765625 619.056884765625 
1 200 71 1 144 4000.0 618.9968872070312 173.0 617.4968872070312 618.4968872070312 
1 201 71 1 145 4000.0 618.524658203125 173.0 617.024658203125 618.024658203125 
1 202 71 1 146 4000.0 618.091552734375 173.0 616.591552734375 617.591552734375 
1 203 71 1 147 4000.0 617.5484619140625 173.0 616.0484619140625 617.0484619140625 
1 204 71 1 148 4000.0 617.1060791015625 173.0 615.6060791015625 616.6060791015625 
1 205 71 1 149 4000.0 616.8607177734375 173.0 615.3607177734375 616.3607177734375 
1 206 71 1 150 4000.0 616.5562744140625 173.0 615.0562744140625 616.0562744140625 
1 207 71 1 151 4000.0 616.3088989257812 173.0 614.8088989257812 615.8088989257812 
1 208 71 1 152 4000.0 616.312744140625 173.0 614.812744140625 615.812744140625 
1 209 71 1 153 4000.0 616.4525146484375 173.0 614.9525146484375 615.9525146484375 
1 210 71 1 154 4000.0 616.6729125976562 173.0 615.1729125976562 616.1729125976562 
1 211 71 1 155 4000.0 617.0318603515625 173.0 615.5318603515625 616.5318603515625 
1 212 71 1 156 4000.0 618.11328125 173.0 616.61328125 617.61328125 
1 213 71 1 157 4000.0 625.9287719726562 173.0 624.4287719726562 625.4287719726562 
1 214 71 1 158 4000.0 647.1787109375 173.0 645.6787109375 646.6787109375 
1 215 71 1 159 4000.0 681.5315551757812 173.0 680.0315551757812 681.0315551757812 
1 216 71 1 160 4000.0 693.6863403320312 173.0 692.1863403320312 693.1863403320312 
1 217 71 1 161 4000.0 677.5642700195312 173.0 676.0642700195312 677.0642700195312 
1 218 71 1 162 4000.0 696.2764892578125 173.0 694.7764892578125 695.7764892578125 
1 219 71 1 163 4000.0 758.4188842773438 173.0 756.9188842773438 757.9188842773438 
1 220 71 1 164 4000.0 809.4446411132812 173.0 807.9446411132812 808.9446411132812 
1 221 71 1 165 4000.0 785.5092163085938 173.0 784.0092163085938 785.0092163085938 
1 222 71 1 166 4000.0 723.319091796875 173.0 721.819091796875 722.819091796875 
1 223 71 1 167 4000.0 709.98291015625 173.0 708.48291015625 709.48291015625 
1 224 71 1 168 4000.0 703.9876708984375 173.0 702.4876708984375 703.4876708984375 
1 225 71 1 169 4000.0 667.2360229492188 173.0 665.7360229492188 666.7360229492188 
1 226 71 1 170 4000.0 632.7862548828125 173.0 631.2862548828125 632.2862548828125 
1 227 71 1 171 4000.0 616.9906005859375 173.0 615.4906005859375 616.4906005859375 
1 228 71 1 172 4000.0 613.095947265625 173.0 611.595947265625 612.595947265625 
1 229 71 1 173 4000.0 612.0227661132812 173.0 610.5227661132812 611.5227661132812 
1 230 71 1 174 4000.0 611.6615600585938 173.0 610.1615600585938 611.1615600585938 
1 231 71 1 175 4000.0 611.1566162109375 173.0 609.6566162109375 610.6566162109375 
1 232 71 1 176 4000.0 610.7311401367188 173.0 609.2311401367188 610.2311401367188 
1 233 71 1 177 4000.0 610.70947265625 173.0 609.20947265625 610.20947265625 
1 234 71 1 178 4000.0 610.7554321289062 173.0 609.2554321289062 610.2554321289062 
1 235 71 1 179 4000.0 610.632568359375 173.0 609.132568359375 610.132568359375 
1 236 71 1 180 4000.0 610.3367919921875 173.0 608.8367919921875 609.8367919921875 
1 237 71 1 181 4000.0 609.8796997070312 173.0 608.3796997070312 609.3796997070312 
1 238 71 1 182 4000.0 609.6435546875 173.0 608.1435546875 609.1435546875 
1 239 71 1 183 4000.0 609.6030883789062 173.0 608.1030883789062 609.1030883789062 
1 240 71 1 184 4000.0 609.4992065429688 173.0 607.9992065429688 608.9992065429688 
1 241 71 1 185 4000.0 609.45556640625 173.0 607.95556640625 608.95556640625 
1 242 71 1 186 4000.0 609.4506225585938 173.0 607.9506225585938 608.9506225585938 
1 243 71 1 187 4000.0 609.39501953125 173.0 607.89501953125 608.89501953125 
1 244 71 1 188 4000.0 609.32666015625 173.0 607.82666015625 608.82666015625 
1 245 71 1 189 4000.0 609.08740234375 173.0 607.58740234375 608.58740234375 
1 246 71 1 190 4000.0 608.6068115234375 173.0 607.1068115234375 608.1068115234375 
1 247 71 1 191 4000.0 608.1705932617188 173.0 606.6705932617188 607.6705932617188 
1 248 71 1 192 4000.0 607.9293823242188 173.0 606.4293823242188 607.4293823242188 
1 249 71 1 193 4000.0 607.8511352539062 173.0 606.3511352539062 607.3511352539062 
