# STR package for  MODFLOW-2005, generated by Flopy.
194 1 0 0 0 86400.0 53 53 
       194         1         1  # stress period 1
1 56 71 1 0 0.0 794.5882568359375 168.0 783.5882568359375 793.5882568359375 
1 57 71 1 1 0.0 783.7765502929688 168.0 772.7765502929688 782.7765502929688 
1 58 71 1 2 0.0 773.1107177734375 168.0 762.1107177734375 772.1107177734375 
1 59 71 1 3 0.0 769.2838134765625 168.0 758.2838134765625 768.2838134765625 
1 60 71 1 4 0.0 753.3621826171875 168.0 742.3621826171875 752.3621826171875 
1 61 71 1 5 0.0 748.6033935546875 168.0 737.6033935546875 747.6033935546875 
1 62 71 1 6 0.0 768.7890014648438 168.0 757.7890014648438 767.7890014648438 
1 63 71 1 7 0.0 789.3543701171875 168.0 778.3543701171875 788.3543701171875 
1 64 71 1 8 0.0 799.3385620117188 168.0 788.3385620117188 798.3385620117188 
1 65 71 1 9 0.0 799.5479736328125 168.0 788.5479736328125 798.5479736328125 
1 66 71 1 10 0.0 793.251708984375 168.0 782.251708984375 792.251708984375 
1 67 71 1 11 0.0 788.07568359375 168.0 777.07568359375 787.07568359375 
1 68 71 1 12 0.0 791.3866577148438 168.0 780.3866577148438 790.3866577148438 
1 69 71 1 13 0.0 798.5603637695312 168.0 787.5603637695312 797.5603637695312 
1 70 71 1 14 0.0 802.4432983398438 168.0 791.4432983398438 801.4432983398438 
1 71 71 1 15 0.0 804.037109375 168.0 793.037109375 803.037109375 
1 72 71 1 16 0.0 803.4207763671875 168.0 792.4207763671875 802.4207763671875 
1 73 71 1 17 0.0 799.466552734375 168.0 788.466552734375 798.466552734375 
1 74 71 1 18 0.0 786.8709716796875 168.0 775.8709716796875 785.8709716796875 
1 75 71 1 19 0.0 765.2382202148438 168.0 754.2382202148438 764.2382202148438 
1 76 71 1 20 0.0 747.5286254882812 168.0 736.5286254882812 746.5286254882812 
1 77 71 1 21 0.0 738.7562255859375 168.0 727.7562255859375 737.7562255859375 
1 78 71 1 22 0.0 735.4848022460938 168.0 724.4848022460938 734.4848022460938 
1 79 71 1 23 0.0 740.1708984375 168.0 729.1708984375 739.1708984375 
1 80 71 1 24 0.0 748.4514770507812 168.0 737.4514770507812 747.4514770507812 
1 81 71 1 25 0.0 751.7786865234375 168.0 740.7786865234375 750.7786865234375 
1 82 71 1 26 0.0 753.1434326171875 168.0 742.1434326171875 752.1434326171875 
1 83 71 1 27 0.0 760.5525512695312 168.0 749.5525512695312 759.5525512695312 
1 84 71 1 28 0.0 774.4848022460938 168.0 763.4848022460938 773.4848022460938 
1 85 71 1 29 0.0 784.4497680664062 168.0 773.4497680664062 783.4497680664062 
1 86 71 1 30 0.0 786.6668701171875 168.0 775.6668701171875 785.6668701171875 
1 87 71 1 31 0.0 789.7504272460938 168.0 778.7504272460938 788.7504272460938 
1 88 71 1 32 0.0 796.001220703125 168.0 785.001220703125 795.001220703125 
1 89 71 1 33 0.0 796.1932373046875 168.0 785.1932373046875 795.1932373046875 
1 90 71 1 34 0.0 787.0823364257812 168.0 776.0823364257812 786.0823364257812 
1 91 71 1 35 0.0 777.62744140625 168.0 766.62744140625 776.62744140625 
1 92 71 1 36 0.0 766.5643920898438 168.0 755.5643920898438 765.5643920898438 
1 93 71 1 37 0.0 748.3201904296875 168.0 737.3201904296875 747.3201904296875 
1 94 71 1 38 0.0 732.2103271484375 168.0 721.2103271484375 731.2103271484375 
1 95 71 1 39 0.0 723.6607666015625 168.0 712.6607666015625 722.6607666015625 
1 96 71 1 40 0.0 716.402587890625 168.0 705.402587890625 715.402587890625 
1 97 71 1 41 0.0 710.523193359375 168.0 699.523193359375 709.523193359375 
1 98 71 1 42 0.0 710.548828125 168.0 699.548828125 709.548828125 
1 99 71 1 43 0.0 712.1651611328125 168.0 701.1651611328125 711.1651611328125 
1 100 71 1 44 0.0 709.3121948242188 168.0 698.3121948242188 708.3121948242188 
1 101 71 1 45 0.0 703.71728515625 168.0 692.71728515625 702.71728515625 
1 102 71 1 46 0.0 696.6294555664062 168.0 685.6294555664062 695.6294555664062 
1 103 71 1 47 0.0 693.5259399414062 168.0 682.5259399414062 692.5259399414062 
1 104 71 1 48 0.0 697.2489013671875 168.0 686.2489013671875 696.2489013671875 
1 105 71 1 49 0.0 698.3954467773438 168.0 687.3954467773438 697.3954467773438 
1 106 71 1 50 0.0 696.902099609375 168.0 685.902099609375 695.902099609375 
1 107 71 1 51 0.0 696.6092529296875 168.0 685.6092529296875 695.6092529296875 
1 108 71 1 52 0.0 695.3745727539062 168.0 684.3745727539062 694.3745727539062 
1 109 71 1 53 0.0 694.15283203125 168.0 683.15283203125 693.15283203125 
1 110 71 1 54 0.0 693.02783203125 168.0 682.02783203125 692.02783203125 
1 111 71 1 55 0.0 690.3028564453125 168.0 679.3028564453125 689.3028564453125 
1 112 71 1 56 0.0 687.7786254882812 168.0 676.7786254882812 686.7786254882812 
1 113 71 1 57 0.0 687.3029174804688 168.0 676.3029174804688 686.3029174804688 
1 114 71 1 58 0.0 687.3707275390625 168.0 676.3707275390625 686.3707275390625 
1 115 71 1 59 0.0 686.9119262695312 168.0 675.9119262695312 685.9119262695312 
1 116 71 1 60 0.0 686.002685546875 168.0 675.002685546875 685.002685546875 
1 117 71 1 61 0.0 685.2261962890625 168.0 674.2261962890625 684.2261962890625 
1 118 71 1 62 0.0 685.0361328125 168.0 674.0361328125 684.0361328125 
1 119 71 1 63 0.0 684.351806640625 168.0 673.351806640625 683.351806640625 
1 120 71 1 64 0.0 683.0888671875 168.0 672.0888671875 682.0888671875 
1 121 71 1 65 0.0 681.7655639648438 168.0 670.7655639648438 680.7655639648438 
1 122 71 1 66 0.0 681.0728149414062 168.0 670.0728149414062 680.0728149414062 
1 123 71 1 67 0.0 681.2131958007812 168.0 670.2131958007812 680.2131958007812 
1 124 71 1 68 0.0 681.007568359375 168.0 670.007568359375 680.007568359375 
1 125 71 1 69 0.0 680.388427734375 168.0 669.388427734375 679.388427734375 
1 126 71 1 70 0.0 679.5036010742188 168.0 668.5036010742188 678.5036010742188 
1 127 71 1 71 0.0 680.06103515625 168.0 669.06103515625 679.06103515625 
1 128 71 1 72 0.0 682.3964233398438 168.0 671.3964233398438 681.3964233398438 
1 129 71 1 73 0.0 681.7025756835938 168.0 670.7025756835938 680.7025756835938 
1 130 71 1 74 0.0 679.142333984375 168.0 668.142333984375 678.142333984375 
1 131 71 1 75 0.0 680.8573608398438 168.0 669.8573608398438 679.8573608398438 
1 132 71 1 76 0.0 681.9898681640625 168.0 670.9898681640625 680.9898681640625 
1 133 71 1 77 0.0 677.1837768554688 168.0 666.1837768554688 676.1837768554688 
1 134 71 1 78 0.0 672.2775268554688 168.0 661.2775268554688 671.2775268554688 
1 135 71 1 79 0.0 672.0291748046875 168.0 661.0291748046875 671.0291748046875 
1 136 71 1 80 0.0 673.41552734375 168.0 662.41552734375 672.41552734375 
1 137 71 1 81 0.0 674.5396728515625 168.0 663.5396728515625 673.5396728515625 
1 138 71 1 82 0.0 674.662109375 168.0 663.662109375 673.662109375 
1 139 71 1 83 0.0 671.6212768554688 168.0 660.6212768554688 670.6212768554688 
1 140 71 1 84 0.0 668.6234741210938 168.0 657.6234741210938 667.6234741210938 
1 141 71 1 85 0.0 665.0018920898438 168.0 654.0018920898438 664.0018920898438 
1 142 71 1 86 0.0 660.743408203125 168.0 649.743408203125 659.743408203125 
1 143 71 1 87 0.0 659.8963623046875 168.0 648.8963623046875 658.8963623046875 
1 144 71 1 88 0.0 660.0025634765625 168.0 649.0025634765625 659.0025634765625 
1 145 71 1 89 0.0 659.98779296875 168.0 648.98779296875 658.98779296875 
1 146 71 1 90 0.0 659.9729614257812 168.0 648.9729614257812 658.9729614257812 
1 147 71 1 91 0.0 659.0851440429688 168.0 648.0851440429688 658.0851440429688 
1 148 71 1 92 0.0 659.0364379882812 168.0 648.0364379882812 658.0364379882812 
1 149 71 1 93 0.0 659.0057373046875 168.0 648.0057373046875 658.0057373046875 
1 150 71 1 94 0.0 657.630859375 168.0 646.630859375 656.630859375 
1 151 71 1 95 0.0 657.0558471679688 168.0 646.0558471679688 656.0558471679688 
1 152 71 1 96 0.0 657.3263549804688 168.0 646.3263549804688 656.3263549804688 
1 153 71 1 97 0.0 656.5877685546875 168.0 645.5877685546875 655.5877685546875 
1 154 71 1 98 0.0 655.4181518554688 168.0 644.4181518554688 654.4181518554688 
1 155 71 1 99 0.0 654.79248046875 168.0 643.79248046875 653.79248046875 
1 156 71 1 100 0.0 654.1531372070312 168.0 643.1531372070312 653.1531372070312 
1 157 71 1 101 0.0 652.7987060546875 168.0 641.7987060546875 651.7987060546875 
1 158 71 1 102 0.0 651.3820190429688 168.0 640.3820190429688 650.3820190429688 
1 159 71 1 103 0.0 650.5142822265625 168.0 639.5142822265625 649.5142822265625 
1 160 71 1 104 0.0 649.29541015625 168.0 638.29541015625 648.29541015625 
1 161 71 1 105 0.0 647.7506103515625 168.0 636.7506103515625 646.7506103515625 
1 162 71 1 106 0.0 646.472412109375 168.0 635.472412109375 645.472412109375 
1 163 71 1 107 0.0 645.1675415039062 168.0 634.1675415039062 644.1675415039062 
1 164 71 1 108 0.0 643.8377685546875 168.0 632.8377685546875 642.8377685546875 
1 165 71 1 109 0.0 642.617431640625 168.0 631.617431640625 641.617431640625 
1 166 71 1 110 0.0 641.8497924804688 168.0 630.8497924804688 640.8497924804688 
1 167 71 1 111 0.0 641.2172241210938 168.0 630.2172241210938 640.2172241210938 
1 168 71 1 112 0.0 639.9645385742188 168.0 628.9645385742188 638.9645385742188 
1 169 71 1 113 0.0 638.5497436523438 168.0 627.5497436523438 637.5497436523438 
1 170 71 1 114 0.0 637.17041015625 168.0 626.17041015625 636.17041015625 
1 171 71 1 115 0.0 635.7810668945312 168.0 624.7810668945312 634.7810668945312 
1 172 71 1 116 0.0 634.4603881835938 168.0 623.4603881835938 633.4603881835938 
1 173 71 1 117 0.0 633.209228515625 168.0 622.209228515625 632.209228515625 
1 174 71 1 118 0.0 631.9527587890625 168.0 620.9527587890625 630.9527587890625 
1 175 71 1 119 0.0 631.1664428710938 168.0 620.1664428710938 630.1664428710938 
1 176 71 1 120 0.0 631.6141967773438 168.0 620.6141967773438 630.6141967773438 
1 177 71 1 121 0.0 632.2201538085938 168.0 621.2201538085938 631.2201538085938 
1 178 71 1 122 0.0 631.824462890625 168.0 620.824462890625 630.824462890625 
1 179 71 1 123 0.0 630.71044921875 168.0 619.71044921875 629.71044921875 
1 180 71 1 124 0.0 629.631591796875 168.0 618.631591796875 628.631591796875 
1 181 71 1 125 0.0 628.6697998046875 168.0 617.6697998046875 627.6697998046875 
1 182 71 1 126 0.0 628.2332763671875 168.0 617.2332763671875 627.2332763671875 
1 183 71 1 127 0.0 628.5699462890625 168.0 617.5699462890625 627.5699462890625 
1 184 71 1 128 0.0 628.4532470703125 168.0 617.4532470703125 627.4532470703125 
1 185 71 1 129 0.0 627.9165649414062 168.0 616.9165649414062 626.9165649414062 
1 186 71 1 130 0.0 627.103759765625 168.0 616.103759765625 626.103759765625 
1 187 71 1 131 0.0 626.4003295898438 168.0 615.4003295898438 625.4003295898438 
1 188 71 1 132 0.0 626.1912231445312 168.0 615.1912231445312 625.1912231445312 
1 189 71 1 133 0.0 625.1812744140625 168.0 614.1812744140625 624.1812744140625 
1 190 71 1 134 0.0 624.0979614257812 168.0 613.0979614257812 623.0979614257812 
1 191 71 1 135 0.0 623.71484375 168.0 612.71484375 622.71484375 
1 192 71 1 136 0.0 623.1400756835938 168.0 612.1400756835938 622.1400756835938 
1 193 71 1 137 0.0 622.452880859375 168.0 611.452880859375 621.452880859375 
1 194 71 1 138 0.0 622.1312255859375 168.0 611.1312255859375 621.1312255859375 
1 195 71 1 139 0.0 622.0194091796875 168.0 611.0194091796875 621.0194091796875 
1 196 71 1 140 0.0 621.6016845703125 168.0 610.6016845703125 620.6016845703125 
1 197 71 1 141 0.0 620.9351196289062 168.0 609.9351196289062 619.9351196289062 
1 198 71 1 142 0.0 620.4743041992188 168.0 609.4743041992188 619.4743041992188 
1 199 71 1 143 0.0 620.056884765625 168.0 609.056884765625 619.056884765625 
1 200 71 1 144 0.0 619.4968872070312 168.0 608.4968872070312 618.4968872070312 
1 201 71 1 145 0.0 619.024658203125 168.0 608.024658203125 618.024658203125 
1 202 71 1 146 0.0 618.591552734375 168.0 607.591552734375 617.591552734375 
1 203 71 1 147 0.0 618.0484619140625 168.0 607.0484619140625 617.0484619140625 
1 204 71 1 148 0.0 617.6060791015625 168.0 606.6060791015625 616.6060791015625 
1 205 71 1 149 0.0 617.3607177734375 168.0 606.3607177734375 616.3607177734375 
1 206 71 1 150 0.0 617.0562744140625 168.0 606.0562744140625 616.0562744140625 
1 207 71 1 151 0.0 616.8088989257812 168.0 605.8088989257812 615.8088989257812 
1 208 71 1 152 0.0 616.812744140625 168.0 605.812744140625 615.812744140625 
1 209 71 1 153 0.0 616.9525146484375 168.0 605.9525146484375 615.9525146484375 
1 210 71 1 154 0.0 617.1729125976562 168.0 606.1729125976562 616.1729125976562 
1 211 71 1 155 0.0 617.5318603515625 168.0 606.5318603515625 616.5318603515625 
1 212 71 1 156 0.0 618.61328125 168.0 607.61328125 617.61328125 
1 213 71 1 157 0.0 626.4287719726562 168.0 615.4287719726562 625.4287719726562 
1 214 71 1 158 0.0 647.6787109375 168.0 636.6787109375 646.6787109375 
1 215 71 1 159 0.0 682.0315551757812 168.0 671.0315551757812 681.0315551757812 
1 216 71 1 160 0.0 694.1863403320312 168.0 683.1863403320312 693.1863403320312 
1 217 71 1 161 0.0 678.0642700195312 168.0 667.0642700195312 677.0642700195312 
1 218 71 1 162 0.0 696.7764892578125 168.0 685.7764892578125 695.7764892578125 
1 219 71 1 163 0.0 758.9188842773438 168.0 747.9188842773438 757.9188842773438 
1 220 71 1 164 0.0 809.9446411132812 168.0 798.9446411132812 808.9446411132812 
1 221 71 1 165 0.0 786.0092163085938 168.0 775.0092163085938 785.0092163085938 
1 222 71 1 166 0.0 723.819091796875 168.0 712.819091796875 722.819091796875 
1 223 71 1 167 0.0 710.48291015625 168.0 699.48291015625 709.48291015625 
1 224 71 1 168 0.0 704.4876708984375 168.0 693.4876708984375 703.4876708984375 
1 225 71 1 169 0.0 667.7360229492188 168.0 656.7360229492188 666.7360229492188 
1 226 71 1 170 0.0 633.2862548828125 168.0 622.2862548828125 632.2862548828125 
1 227 71 1 171 0.0 617.4906005859375 168.0 606.4906005859375 616.4906005859375 
1 228 71 1 172 0.0 613.595947265625 168.0 602.595947265625 612.595947265625 
1 229 71 1 173 0.0 612.5227661132812 168.0 601.5227661132812 611.5227661132812 
1 230 71 1 174 0.0 612.1615600585938 168.0 601.1615600585938 611.1615600585938 
1 231 71 1 175 0.0 611.6566162109375 168.0 600.6566162109375 610.6566162109375 
1 232 71 1 176 0.0 611.2311401367188 168.0 600.2311401367188 610.2311401367188 
1 233 71 1 177 0.0 611.20947265625 168.0 600.20947265625 610.20947265625 
1 234 71 1 178 0.0 611.2554321289062 168.0 600.2554321289062 610.2554321289062 
1 235 71 1 179 0.0 611.132568359375 168.0 600.132568359375 610.132568359375 
1 236 71 1 180 0.0 610.8367919921875 168.0 599.8367919921875 609.8367919921875 
1 237 71 1 181 0.0 610.3796997070312 168.0 599.3796997070312 609.3796997070312 
1 238 71 1 182 0.0 610.1435546875 168.0 599.1435546875 609.1435546875 
1 239 71 1 183 0.0 610.1030883789062 168.0 599.1030883789062 609.1030883789062 
1 240 71 1 184 0.0 609.9992065429688 168.0 598.9992065429688 608.9992065429688 
1 241 71 1 185 0.0 609.95556640625 168.0 598.95556640625 608.95556640625 
1 242 71 1 186 0.0 609.9506225585938 168.0 598.9506225585938 608.9506225585938 
1 243 71 1 187 0.0 609.89501953125 168.0 598.89501953125 608.89501953125 
1 244 71 1 188 0.0 609.82666015625 168.0 598.82666015625 608.82666015625 
1 245 71 1 189 0.0 609.58740234375 168.0 598.58740234375 608.58740234375 
1 246 71 1 190 0.0 609.1068115234375 168.0 598.1068115234375 608.1068115234375 
1 247 71 1 191 0.0 608.6705932617188 168.0 597.6705932617188 607.6705932617188 
1 248 71 1 192 0.0 608.4293823242188 168.0 597.4293823242188 607.4293823242188 
1 249 71 1 193 0.0 608.3511352539062 168.0 597.3511352539062 607.3511352539062 
