# DIS package for  MODFLOW-2005, generated by Flopy.
         2       250       145         1         5         2
  1  0
CONSTANT    1.000000E+03                           #delr                          
CONSTANT    1.000000E+03                           #delc                          
INTERNAL               1 (145E15.6) -1 #model_top                     
   1.240851E+03   1.240851E+03   1.240851E+03   1.240851E+03   1.240851E+03   1.240851E+03   1.240851E+03   1.240851E+03   1.240851E+03   1.240851E+03   1.240851E+03   1.240851E+03   1.240851E+03   1.240851E+03   1.240851E+03   1.240851E+03   1.240851E+03   1.240851E+03   1.240851E+03   1.240851E+03   1.240851E+03   1.240851E+03   1.240851E+03   1.240851E+03   1.240851E+03   1.240851E+03   1.240851E+03   1.240851E+03   1.240851E+03   1.240851E+03   1.240851E+03   1.240851E+03   1.240851E+03   1.240851E+03   1.240851E+03   1.240851E+03   1.240851E+03   1.240851E+03   1.240851E+03   1.240851E+03   1.240851E+03   1.240851E+03   1.240851E+03   1.240851E+03   1.240851E+03   1.240851E+03   1.240851E+03   1.240851E+03   1.240851E+03   1.240851E+03   1.240851E+03   1.240851E+03   1.240851E+03   1.240851E+03   1.240851E+03   1.240851E+03   1.240851E+03   1.240851E+03   1.240851E+03   1.240851E+03   1.240851E+03   1.240851E+03   1.240851E+03   1.240851E+03   1.240851E+03   1.240851E+03   1.240851E+03   1.240851E+03   1.240851E+03   1.240851E+03   1.240851E+03   1.240851E+03   1.240851E+03   1.240851E+03   1.240851E+03   1.240851E+03   1.240851E+03   1.240851E+03   1.240851E+03   1.240851E+03   1.240851E+03   1.240851E+03   1.240851E+03   1.240851E+03   1.240851E+03   1.240851E+03   1.240851E+03   1.240851E+03   1.240851E+03   1.240851E+03   1.240851E+03   1.240851E+03   1.240851E+03   1.240851E+03   1.240851E+03   1.240851E+03   1.240851E+03   1.240851E+03   1.240851E+03   1.240851E+03   1.240851E+03   1.240851E+03   1.240851E+03   1.240851E+03   1.240851E+03   1.240851E+03   1.240851E+03   1.240851E+03   1.240851E+03   1.240851E+03   1.240851E+03   1.240851E+03   1.240851E+03   1.240851E+03   1.240851E+03   1.240851E+03   1.240851E+03   1.240851E+03   1.240851E+03   1.240851E+03   1.240851E+03   1.240851E+03   1.240851E+03   1.240851E+03   1.240851E+03   1.240851E+03   1.240851E+03   1.240851E+03   1.240851E+03   1.240851E+03   1.240851E+03   1.240851E+03   1.240851E+03   1.240851E+03   1.240851E+03   1.240851E+03   1.240851E+03   1.240851E+03   1.240851E+03   1.240851E+03   1.240851E+03   1.240851E+03   1.240851E+03   1.240851E+03   1.240851E+03
   1.240851E+03   1.240851E+03   1.240851E+03   1.240851E+03   1.240851E+03   1.240851E+03   1.240851E+03   1.240851E+03   1.240851E+03   1.240851E+03   1.240851E+03   1.240851E+03   1.240851E+03   1.240851E+03   1.240851E+03   1.240851E+03   1.240851E+03   1.240851E+03   1.240851E+03   1.240851E+03   1.240851E+03   1.240851E+03   1.240851E+03   1.240851E+03   1.240851E+03   1.240851E+03   1.240851E+03   1.240851E+03   1.240851E+03   1.240851E+03   1.240851E+03   1.240851E+03   1.240851E+03   1.240851E+03   1.240851E+03   1.240851E+03   1.240851E+03   1.240851E+03   1.240851E+03   1.240851E+03   1.240851E+03   1.240851E+03   1.240851E+03   1.240851E+03   1.240851E+03   1.240851E+03   1.240851E+03   1.240851E+03   1.240851E+03   1.240851E+03   1.240851E+03   1.240851E+03   1.240851E+03   1.240851E+03   1.240851E+03   1.240851E+03   1.240851E+03   1.240851E+03   1.240851E+03   1.240851E+03   1.240851E+03   1.240851E+03   1.240851E+03   1.240851E+03   1.240851E+03   1.240851E+03   1.240851E+03   1.240851E+03   1.240851E+03   1.240851E+03   1.240851E+03   1.240851E+03   1.240851E+03   1.240851E+03   1.240851E+03   1.240851E+03   1.240851E+03   1.240851E+03   1.240851E+03   1.240851E+03   1.240851E+03   1.240851E+03   1.240851E+03   1.240851E+03   1.240851E+03   1.240851E+03   1.240851E+03   1.240851E+03   1.240851E+03   1.240851E+03   1.240851E+03   1.240851E+03   1.240851E+03   1.240851E+03   1.240851E+03   1.240851E+03   1.240851E+03   1.240851E+03   1.240851E+03   1.240851E+03   1.240851E+03   1.240851E+03   1.240851E+03   1.240851E+03   1.240851E+03   1.240851E+03   1.240851E+03   1.240851E+03   1.240851E+03   1.240851E+03   1.240851E+03   1.240851E+03   1.240851E+03   1.240851E+03   1.240851E+03   1.240851E+03   1.240851E+03   1.240851E+03   1.240851E+03   1.240851E+03   1.240851E+03   1.240851E+03   1.240851E+03   1.240851E+03   1.240851E+03   1.240851E+03   1.240851E+03   1.240851E+03   1.240851E+03   1.240851E+03   1.240851E+03   1.240851E+03   1.240851E+03   1.240851E+03   1.240851E+03   1.240851E+03   1.240851E+03   1.240851E+03   1.240851E+03   1.240851E+03   1.240851E+03   1.240851E+03   1.240851E+03   1.240851E+03   1.240851E+03
   1.240851E+03   1.240851E+03   1.240851E+03   1.240851E+03   1.240851E+03   1.240851E+03   1.240851E+03   1.240851E+03   1.240851E+03   1.240851E+03   1.240851E+03   1.240851E+03   1.240851E+03   1.240851E+03   1.240851E+03   1.240851E+03   1.240851E+03   1.240851E+03   1.240851E+03   1.240851E+03   1.240851E+03   1.240851E+03   1.240851E+03   1.240851E+03   1.240851E+03   1.240851E+03   1.240851E+03   1.240851E+03   1.240851E+03   1.240851E+03   1.240851E+03   1.240851E+03   1.240851E+03   1.240851E+03   1.240851E+03   1.240851E+03   1.240851E+03   1.240851E+03   1.240851E+03   1.240851E+03   1.240851E+03   1.240851E+03   1.240851E+03   1.240851E+03   1.240851E+03   1.240851E+03   1.240851E+03   1.240851E+03   1.240851E+03   1.240851E+03   1.240851E+03   1.240851E+03   1.240851E+03   1.240851E+03   1.240851E+03   1.240851E+03   1.240851E+03   1.240851E+03   1.240851E+03   1.240851E+03   1.240851E+03   1.240851E+03   1.240851E+03   1.240851E+03   1.240851E+03   1.240851E+03   1.240851E+03   1.240851E+03   1.240851E+03   1.240851E+03   1.240851E+03   1.240851E+03   1.240851E+03   1.240851E+03   1.240851E+03   1.240851E+03   1.240851E+03   1.240851E+03   1.240851E+03   1.240851E+03   1.240851E+03   1.240851E+03   1.240851E+03   1.240851E+03   1.240851E+03   1.240851E+03   1.240851E+03   1.240851E+03   1.240851E+03   1.240851E+03   1.240851E+03   1.240851E+03   1.240851E+03   1.240851E+03   1.240851E+03   1.240851E+03   1.240851E+03   1.240851E+03   1.240851E+03   1.240851E+03   1.240851E+03   1.240851E+03   1.240851E+03   1.240851E+03   1.240851E+03   1.240851E+03   1.240851E+03   1.240851E+03   1.240851E+03   1.240851E+03   1.240851E+03   1.240851E+03   1.240851E+03   1.240851E+03   1.240851E+03   1.240851E+03   1.240851E+03   1.240851E+03   1.240851E+03   1.240851E+03   1.240851E+03   1.240851E+03   1.240851E+03   1.240851E+03   1.240851E+03   1.240851E+03   1.240851E+03   1.240851E+03   1.240851E+03   1.240851E+03   1.240851E+03   1.240851E+03   1.240851E+03   1.240851E+03   1.240851E+03   1.240851E+03   1.240851E+03   1.240851E+03   1.240851E+03   1.240851E+03   1.240851E+03   1.240851E+03   1.240851E+03   1.240851E+03   1.240851E+03
   1.240851E+03   1.240851E+03   1.240851E+03   1.240851E+03   1.240851E+03   1.240851E+03   1.240851E+03   1.240851E+03   1.240851E+03   1.240851E+03   1.240851E+03   1.240851E+03   1.240851E+03   1.240851E+03   1.240851E+03   1.240851E+03   1.240851E+03   1.240851E+03   1.240851E+03   1.240851E+03   1.240851E+03   1.240851E+03   1.240851E+03   1.240851E+03   1.240851E+03   1.240851E+03   1.240851E+03   1.240851E+03   1.240851E+03   1.240851E+03   1.240851E+03   1.240851E+03   1.240851E+03   1.240851E+03   1.240851E+03   1.240851E+03   1.240851E+03   1.240851E+03   1.240851E+03   1.240851E+03   1.240851E+03   1.240851E+03   1.240851E+03   1.240851E+03   1.240851E+03   1.240851E+03   1.240851E+03   1.240851E+03   1.240851E+03   1.240851E+03   1.240851E+03   1.240851E+03   1.240851E+03   1.240851E+03   1.240851E+03   1.240851E+03   1.240851E+03   1.240851E+03   1.240851E+03   1.240851E+03   1.240851E+03   1.240851E+03   1.240851E+03   1.240851E+03   1.240851E+03   1.240851E+03   1.240851E+03   1.240851E+03   1.240851E+03   1.240851E+03   1.240851E+03   1.921602E+03   1.937096E+03   1.240851E+03   1.240851E+03   1.240851E+03   1.240851E+03   1.240851E+03   1.240851E+03   1.240851E+03   1.240851E+03   1.240851E+03   1.240851E+03   1.240851E+03   1.240851E+03   1.240851E+03   1.240851E+03   1.240851E+03   1.240851E+03   1.240851E+03   1.240851E+03   1.240851E+03   1.240851E+03   1.240851E+03   1.240851E+03   1.240851E+03   1.240851E+03   1.240851E+03   1.240851E+03   1.240851E+03   1.240851E+03   1.240851E+03   1.240851E+03   1.240851E+03   1.240851E+03   1.240851E+03   1.240851E+03   1.240851E+03   1.240851E+03   1.240851E+03   1.240851E+03   1.240851E+03   1.240851E+03   1.240851E+03   1.240851E+03   1.240851E+03   1.240851E+03   1.240851E+03   1.240851E+03   1.240851E+03   1.240851E+03   1.240851E+03   1.240851E+03   1.240851E+03   1.240851E+03   1.240851E+03   1.240851E+03   1.240851E+03   1.240851E+03   1.240851E+03   1.240851E+03   1.240851E+03   1.240851E+03   1.240851E+03   1.240851E+03   1.240851E+03   1.240851E+03   1.240851E+03   1.240851E+03   1.240851E+03   1.240851E+03   1.240851E+03   1.240851E+03   1.240851E+03   1.240851E+03
   1.240851E+03   1.240851E+03   1.240851E+03   1.240851E+03   1.240851E+03   1.240851E+03   1.240851E+03   1.240851E+03   1.240851E+03   1.240851E+03   1.240851E+03   1.240851E+03   1.240851E+03   1.240851E+03   1.240851E+03   1.240851E+03   1.240851E+03   1.240851E+03   1.240851E+03   1.240851E+03   1.240851E+03   1.240851E+03   1.240851E+03   1.240851E+03   1.240851E+03   1.240851E+03   1.240851E+03   1.240851E+03   1.240851E+03   1.240851E+03   1.240851E+03   1.240851E+03   1.240851E+03   1.240851E+03   1.240851E+03   1.240851E+03   1.240851E+03   1.240851E+03   1.240851E+03   1.240851E+03   1.240851E+03   1.240851E+03   1.240851E+03   1.240851E+03   1.240851E+03   1.240851E+03   1.240851E+03   1.240851E+03   1.240851E+03   1.240851E+03   1.240851E+03   1.240851E+03   1.240851E+03   1.240851E+03   1.240851E+03   1.240851E+03   1.240851E+03   1.240851E+03   1.240851E+03   1.240851E+03   1.240851E+03   1.240851E+03   1.240851E+03   1.240851E+03   1.240851E+03   1.240851E+03   1.240851E+03   1.240851E+03   1.240851E+03   1.240851E+03   1.843607E+03   1.870123E+03   1.901610E+03   1.240851E+03   1.240851E+03   1.240851E+03   1.240851E+03   1.240851E+03   1.240851E+03   1.240851E+03   1.240851E+03   1.240851E+03   1.240851E+03   1.240851E+03   1.240851E+03   1.240851E+03   1.240851E+03   1.240851E+03   1.240851E+03   1.240851E+03   1.240851E+03   1.240851E+03   1.240851E+03   1.240851E+03   1.240851E+03   1.240851E+03   1.240851E+03   1.240851E+03   1.240851E+03   1.240851E+03   1.240851E+03   1.240851E+03   1.240851E+03   1.240851E+03   1.240851E+03   1.240851E+03   1.240851E+03   1.240851E+03   1.240851E+03   1.240851E+03   1.240851E+03   1.240851E+03   1.240851E+03   1.240851E+03   1.240851E+03   1.240851E+03   1.240851E+03   1.240851E+03   1.240851E+03   1.240851E+03   1.240851E+03   1.240851E+03   1.240851E+03   1.240851E+03   1.240851E+03   1.240851E+03   1.240851E+03   1.240851E+03   1.240851E+03   1.240851E+03   1.240851E+03   1.240851E+03   1.240851E+03   1.240851E+03   1.240851E+03   1.240851E+03   1.240851E+03   1.240851E+03   1.240851E+03   1.240851E+03   1.240851E+03   1.240851E+03   1.240851E+03   1.240851E+03   1.240851E+03
   1.240851E+03   1.240851E+03   1.240851E+03   1.240851E+03   1.240851E+03   1.240851E+03   1.240851E+03   1.240851E+03   1.240851E+03   1.240851E+03   1.240851E+03   1.240851E+03   1.240851E+03   1.240851E+03   1.240851E+03   1.240851E+03   1.240851E+03   1.240851E+03   1.240851E+03   1.240851E+03   1.240851E+03   1.240851E+03   1.240851E+03   1.240851E+03   1.240851E+03   1.240851E+03   1.240851E+03   1.240851E+03   1.240851E+03   1.240851E+03   1.240851E+03   1.240851E+03   1.240851E+03   1.240851E+03   1.240851E+03   1.240851E+03   1.240851E+03   1.240851E+03   1.240851E+03   1.240851E+03   1.240851E+03   1.240851E+03   1.240851E+03   1.240851E+03   1.240851E+03   1.240851E+03   1.240851E+03   1.240851E+03   1.240851E+03   1.240851E+03   1.240851E+03   1.240851E+03   1.240851E+03   1.240851E+03   1.240851E+03   1.240851E+03   1.240851E+03   1.240851E+03   1.240851E+03   1.240851E+03   1.240851E+03   1.240851E+03   1.240851E+03   1.240851E+03   1.240851E+03   1.240851E+03   1.240851E+03   1.240851E+03   1.240851E+03   1.240851E+03   1.846360E+03   1.931583E+03   1.986787E+03   1.240851E+03   1.240851E+03   1.240851E+03   1.240851E+03   1.240851E+03   1.240851E+03   1.240851E+03   1.240851E+03   1.240851E+03   1.240851E+03   1.240851E+03   1.240851E+03   1.240851E+03   1.240851E+03   1.240851E+03   1.240851E+03   1.240851E+03   1.240851E+03   1.240851E+03   1.240851E+03   1.240851E+03   1.240851E+03   1.240851E+03   1.240851E+03   1.240851E+03   1.240851E+03   1.240851E+03   1.240851E+03   1.240851E+03   1.240851E+03   1.240851E+03   1.240851E+03   1.240851E+03   1.240851E+03   1.240851E+03   1.240851E+03   1.240851E+03   1.240851E+03   1.240851E+03   1.240851E+03   1.240851E+03   1.240851E+03   1.240851E+03   1.240851E+03   1.240851E+03   1.240851E+03   1.240851E+03   1.240851E+03   1.240851E+03   1.240851E+03   1.240851E+03   1.240851E+03   1.240851E+03   1.240851E+03   1.240851E+03   1.240851E+03   1.240851E+03   1.240851E+03   1.240851E+03   1.240851E+03   1.240851E+03   1.240851E+03   1.240851E+03   1.240851E+03   1.240851E+03   1.240851E+03   1.240851E+03   1.240851E+03   1.240851E+03   1.240851E+03   1.240851E+03   1.240851E+03
   1.240851E+03   1.240851E+03   1.240851E+03   1.240851E+03   1.240851E+03   1.240851E+03   1.240851E+03   1.240851E+03   1.240851E+03   1.240851E+03   1.240851E+03   1.240851E+03   1.240851E+03   1.240851E+03   1.240851E+03   1.240851E+03   1.240851E+03   1.240851E+03   1.240851E+03   1.240851E+03   1.240851E+03   1.240851E+03   1.240851E+03   1.240851E+03   1.240851E+03   1.240851E+03   1.240851E+03   1.240851E+03   1.240851E+03   1.240851E+03   1.240851E+03   1.240851E+03   1.240851E+03   1.240851E+03   1.240851E+03   1.240851E+03   1.240851E+03   1.240851E+03   1.240851E+03   1.240851E+03   1.240851E+03   1.240851E+03   1.240851E+03   1.240851E+03   1.240851E+03   1.240851E+03   1.240851E+03   1.240851E+03   1.240851E+03   1.240851E+03   1.240851E+03   1.240851E+03   1.240851E+03   1.240851E+03   1.240851E+03   1.240851E+03   1.240851E+03   1.240851E+03   1.240851E+03   1.240851E+03   1.240851E+03   1.240851E+03   1.240851E+03   1.240851E+03   1.240851E+03   1.240851E+03   1.240851E+03   1.240851E+03   1.240851E+03   1.785656E+03   1.831674E+03   1.961284E+03   1.240851E+03   1.240851E+03   1.240851E+03   1.240851E+03   1.240851E+03   1.240851E+03   1.240851E+03   1.240851E+03   1.240851E+03   1.240851E+03   1.240851E+03   1.240851E+03   1.240851E+03   1.240851E+03   1.240851E+03   1.240851E+03   1.240851E+03   1.240851E+03   1.240851E+03   1.240851E+03   1.240851E+03   1.240851E+03   1.240851E+03   1.240851E+03   1.240851E+03   1.240851E+03   1.240851E+03   1.240851E+03   1.240851E+03   1.240851E+03   1.240851E+03   1.240851E+03   1.240851E+03   1.240851E+03   1.240851E+03   1.240851E+03   1.240851E+03   1.240851E+03   1.240851E+03   1.240851E+03   1.240851E+03   1.240851E+03   1.240851E+03   1.240851E+03   1.240851E+03   1.240851E+03   1.240851E+03   1.240851E+03   1.240851E+03   1.240851E+03   1.240851E+03   1.240851E+03   1.240851E+03   1.240851E+03   1.240851E+03   1.240851E+03   1.240851E+03   1.240851E+03   1.240851E+03   1.240851E+03   1.240851E+03   1.240851E+03   1.240851E+03   1.240851E+03   1.240851E+03   1.240851E+03   1.240851E+03   1.240851E+03   1.240851E+03   1.240851E+03   1.240851E+03   1.240851E+03   1.240851E+03
   1.240851E+03   1.240851E+03   1.240851E+03   1.240851E+03   1.240851E+03   1.240851E+03   1.240851E+03   1.240851E+03   1.240851E+03   1.240851E+03   1.240851E+03   1.240851E+03   1.240851E+03   1.240851E+03   1.240851E+03   1.240851E+03   1.240851E+03   1.240851E+03   1.240851E+03   1.240851E+03   1.240851E+03   1.240851E+03   1.240851E+03   1.240851E+03   1.240851E+03   1.240851E+03   1.240851E+03   1.240851E+03   1.240851E+03   1.240851E+03   1.240851E+03   1.240851E+03   1.240851E+03   1.240851E+03   1.240851E+03   1.240851E+03   1.240851E+03   1.240851E+03   1.240851E+03   1.240851E+03   1.240851E+03   1.240851E+03   1.240851E+03   1.240851E+03   1.240851E+03   1.240851E+03   1.240851E+03   1.240851E+03   1.240851E+03   1.240851E+03   1.240851E+03   1.240851E+03   1.240851E+03   1.240851E+03   1.240851E+03   1.240851E+03   1.240851E+03   1.240851E+03   1.240851E+03   1.240851E+03   1.240851E+03   1.240851E+03   1.240851E+03   1.240851E+03   1.240851E+03   1.240851E+03   1.240851E+03   1.240851E+03   1.240851E+03   1.728099E+03   1.801553E+03   1.917703E+03   1.240851E+03   1.240851E+03   1.240851E+03   1.240851E+03   1.240851E+03   1.240851E+03   1.240851E+03   1.240851E+03   1.240851E+03   1.240851E+03   1.240851E+03   1.240851E+03   1.240851E+03   1.240851E+03   1.240851E+03   1.240851E+03   1.240851E+03   1.240851E+03   1.240851E+03   1.240851E+03   1.240851E+03   1.240851E+03   1.240851E+03   1.240851E+03   1.240851E+03   1.240851E+03   1.240851E+03   1.240851E+03   1.240851E+03   1.240851E+03   1.240851E+03   1.240851E+03   1.240851E+03   1.240851E+03   1.240851E+03   1.240851E+03   1.240851E+03   1.240851E+03   1.240851E+03   1.240851E+03   1.240851E+03   1.240851E+03   1.240851E+03   1.240851E+03   1.240851E+03   1.240851E+03   1.240851E+03   1.240851E+03   1.240851E+03   1.240851E+03   1.240851E+03   1.240851E+03   1.240851E+03   1.240851E+03   1.240851E+03   1.240851E+03   1.240851E+03   1.240851E+03   1.240851E+03   1.240851E+03   1.240851E+03   1.240851E+03   1.240851E+03   1.240851E+03   1.240851E+03   1.240851E+03   1.240851E+03   1.240851E+03   1.240851E+03   1.240851E+03   1.240851E+03   1.240851E+03   1.240851E+03
   1.240851E+03   1.240851E+03   1.240851E+03   1.240851E+03   1.240851E+03   1.240851E+03   1.240851E+03   1.240851E+03   1.240851E+03   1.240851E+03   1.240851E+03   1.240851E+03   1.240851E+03   1.240851E+03   1.240851E+03   1.240851E+03   1.240851E+03   1.240851E+03   1.240851E+03   1.240851E+03   1.240851E+03   1.240851E+03   1.240851E+03   1.240851E+03   1.240851E+03   1.240851E+03   1.240851E+03   1.240851E+03   1.240851E+03   1.240851E+03   1.240851E+03   1.240851E+03   1.240851E+03   1.240851E+03   1.240851E+03   1.240851E+03   1.240851E+03   1.240851E+03   1.240851E+03   1.240851E+03   1.240851E+03   1.240851E+03   1.240851E+03   1.240851E+03   1.240851E+03   1.240851E+03   1.240851E+03   1.240851E+03   1.240851E+03   1.240851E+03   1.240851E+03   1.240851E+03   1.240851E+03   1.240851E+03   1.240851E+03   1.240851E+03   1.240851E+03   1.240851E+03   1.240851E+03   1.240851E+03   1.240851E+03   1.240851E+03   1.240851E+03   1.240851E+03   1.240851E+03   1.240851E+03   1.240851E+03   1.240851E+03   1.773117E+03   1.738403E+03   1.806182E+03   1.881113E+03   1.240851E+03   1.240851E+03   1.240851E+03   1.240851E+03   1.240851E+03   1.240851E+03   1.240851E+03   1.240851E+03   1.240851E+03   1.240851E+03   1.240851E+03   1.240851E+03   1.240851E+03   1.240851E+03   1.240851E+03   1.240851E+03   1.240851E+03   1.240851E+03   1.240851E+03   1.240851E+03   1.240851E+03   1.240851E+03   1.240851E+03   1.240851E+03   1.240851E+03   1.240851E+03   1.240851E+03   1.240851E+03   1.240851E+03   1.240851E+03   1.240851E+03   1.240851E+03   1.240851E+03   1.240851E+03   1.240851E+03   1.240851E+03   1.240851E+03   1.240851E+03   1.240851E+03   1.240851E+03   1.240851E+03   1.240851E+03   1.240851E+03   1.240851E+03   1.240851E+03   1.240851E+03   1.240851E+03   1.240851E+03   1.240851E+03   1.240851E+03   1.240851E+03   1.240851E+03   1.240851E+03   1.240851E+03   1.240851E+03   1.240851E+03   1.240851E+03   1.240851E+03   1.240851E+03   1.240851E+03   1.240851E+03   1.240851E+03   1.240851E+03   1.240851E+03   1.240851E+03   1.240851E+03   1.240851E+03   1.240851E+03   1.240851E+03   1.240851E+03   1.240851E+03   1.240851E+03   1.240851E+03
   1.240851E+03   1.240851E+03   1.240851E+03   1.240851E+03   1.240851E+03   1.240851E+03   1.240851E+03   1.240851E+03   1.240851E+03   1.240851E+03   1.240851E+03   1.240851E+03   1.240851E+03   1.240851E+03   1.240851E+03   1.240851E+03   1.240851E+03   1.240851E+03   1.240851E+03   1.240851E+03   1.240851E+03   1.240851E+03   1.240851E+03   1.240851E+03   1.240851E+03   1.240851E+03   1.240851E+03   1.240851E+03   1.240851E+03   1.240851E+03   1.240851E+03   1.240851E+03   1.240851E+03   1.240851E+03   1.240851E+03   1.240851E+03   1.240851E+03   1.240851E+03   1.240851E+03   1.240851E+03   1.240851E+03   1.240851E+03   1.240851E+03   1.240851E+03   1.240851E+03   1.240851E+03   1.240851E+03   1.240851E+03   1.240851E+03   1.240851E+03   1.240851E+03   1.240851E+03   1.240851E+03   1.240851E+03   1.240851E+03   1.240851E+03   1.240851E+03   1.240851E+03   1.240851E+03   1.240851E+03   1.240851E+03   1.240851E+03   1.240851E+03   1.240851E+03   1.240851E+03   1.240851E+03   1.240851E+03   1.240851E+03   1.834060E+03   1.756819E+03   1.799108E+03   1.837663E+03   1.240851E+03   1.240851E+03   1.240851E+03   1.240851E+03   1.240851E+03   1.240851E+03   1.240851E+03   1.240851E+03   1.240851E+03   1.240851E+03   1.240851E+03   1.240851E+03   1.240851E+03   1.240851E+03   1.240851E+03   1.240851E+03   1.240851E+03   1.240851E+03   1.240851E+03   1.240851E+03   1.240851E+03   1.240851E+03   1.240851E+03   1.240851E+03   1.240851E+03   1.240851E+03   1.240851E+03   1.240851E+03   1.240851E+03   1.240851E+03   1.240851E+03   1.240851E+03   1.240851E+03   1.240851E+03   1.240851E+03   1.240851E+03   1.240851E+03   1.240851E+03   1.240851E+03   1.240851E+03   1.240851E+03   1.240851E+03   1.240851E+03   1.240851E+03   1.240851E+03   1.240851E+03   1.240851E+03   1.240851E+03   1.240851E+03   1.240851E+03   1.240851E+03   1.240851E+03   1.240851E+03   1.240851E+03   1.240851E+03   1.240851E+03   1.240851E+03   1.240851E+03   1.240851E+03   1.240851E+03   1.240851E+03   1.240851E+03   1.240851E+03   1.240851E+03   1.240851E+03   1.240851E+03   1.240851E+03   1.240851E+03   1.240851E+03   1.240851E+03   1.240851E+03   1.240851E+03   1.240851E+03
   1.240851E+03   1.240851E+03   1.240851E+03   1.240851E+03   1.240851E+03   1.240851E+03   1.240851E+03   1.240851E+03   1.240851E+03   1.240851E+03   1.240851E+03   1.240851E+03   1.240851E+03   1.240851E+03   1.240851E+03   1.240851E+03   1.240851E+03   1.240851E+03   1.240851E+03   1.240851E+03   1.240851E+03   1.240851E+03   1.240851E+03   1.240851E+03   1.240851E+03   1.240851E+03   1.240851E+03   1.240851E+03   1.240851E+03   1.240851E+03   1.240851E+03   1.240851E+03   1.240851E+03   1.240851E+03   1.240851E+03   1.240851E+03   1.240851E+03   1.240851E+03   1.240851E+03   1.240851E+03   1.240851E+03   1.240851E+03   1.240851E+03   1.240851E+03   1.240851E+03   1.240851E+03   1.240851E+03   1.240851E+03   1.240851E+03   1.240851E+03   1.240851E+03   1.240851E+03   1.240851E+03   1.240851E+03   1.240851E+03   1.240851E+03   1.240851E+03   1.240851E+03   1.240851E+03   1.240851E+03   1.240851E+03   1.240851E+03   1.240851E+03   1.240851E+03   1.240851E+03   1.240851E+03   1.240851E+03   1.240851E+03   1.830776E+03   1.719476E+03   1.762324E+03   1.782143E+03   1.240851E+03   1.240851E+03   1.240851E+03   1.240851E+03   1.240851E+03   1.240851E+03   1.240851E+03   1.240851E+03   1.240851E+03   1.240851E+03   1.240851E+03   1.240851E+03   1.240851E+03   1.240851E+03   1.240851E+03   1.240851E+03   1.240851E+03   1.240851E+03   1.240851E+03   1.240851E+03   1.240851E+03   1.240851E+03   1.240851E+03   1.240851E+03   1.240851E+03   1.240851E+03   1.240851E+03   1.240851E+03   1.240851E+03   1.240851E+03   1.240851E+03   1.240851E+03   1.240851E+03   1.240851E+03   1.240851E+03   1.240851E+03   1.240851E+03   1.240851E+03   1.240851E+03   1.240851E+03   1.240851E+03   1.240851E+03   1.240851E+03   1.240851E+03   1.240851E+03   1.240851E+03   1.240851E+03   1.240851E+03   1.240851E+03   1.240851E+03   1.240851E+03   1.240851E+03   1.240851E+03   1.240851E+03   1.240851E+03   1.240851E+03   1.240851E+03   1.240851E+03   1.240851E+03   1.240851E+03   1.240851E+03   1.240851E+03   1.240851E+03   1.240851E+03   1.240851E+03   1.240851E+03   1.240851E+03   1.240851E+03   1.240851E+03   1.240851E+03   1.240851E+03   1.240851E+03   1.240851E+03
   1.240851E+03   1.240851E+03   1.240851E+03   1.240851E+03   1.240851E+03   1.240851E+03   1.240851E+03   1.240851E+03   1.240851E+03   1.240851E+03   1.240851E+03   1.240851E+03   1.240851E+03   1.240851E+03   1.240851E+03   1.240851E+03   1.240851E+03   1.240851E+03   1.240851E+03   1.240851E+03   1.240851E+03   1.240851E+03   1.240851E+03   1.240851E+03   1.240851E+03   1.240851E+03   1.240851E+03   1.240851E+03   1.240851E+03   1.240851E+03   1.240851E+03   1.240851E+03   1.240851E+03   1.240851E+03   1.240851E+03   1.240851E+03   1.240851E+03   1.240851E+03   1.240851E+03   1.240851E+03   1.240851E+03   1.240851E+03   1.240851E+03   1.240851E+03   1.240851E+03   1.240851E+03   1.240851E+03   1.240851E+03   1.240851E+03   1.240851E+03   1.240851E+03   1.240851E+03   1.240851E+03   1.240851E+03   1.240851E+03   1.240851E+03   1.240851E+03   1.240851E+03   1.240851E+03   1.240851E+03   1.240851E+03   1.240851E+03   1.240851E+03   1.240851E+03   1.240851E+03   1.240851E+03   1.240851E+03   1.240851E+03   1.773993E+03   1.681509E+03   1.721068E+03   1.732972E+03   1.240851E+03   1.240851E+03   1.240851E+03   1.240851E+03   1.240851E+03   1.240851E+03   1.240851E+03   1.240851E+03   1.240851E+03   1.240851E+03   1.240851E+03   1.240851E+03   1.240851E+03   1.240851E+03   1.240851E+03   1.240851E+03   1.240851E+03   1.240851E+03   1.240851E+03   1.240851E+03   1.240851E+03   1.240851E+03   1.240851E+03   1.240851E+03   1.240851E+03   1.240851E+03   1.240851E+03   1.240851E+03   1.240851E+03   1.240851E+03   1.240851E+03   1.240851E+03   1.240851E+03   1.240851E+03   1.240851E+03   1.240851E+03   1.240851E+03   1.240851E+03   1.240851E+03   1.240851E+03   1.240851E+03   1.240851E+03   1.240851E+03   1.240851E+03   1.240851E+03   1.240851E+03   1.240851E+03   1.240851E+03   1.240851E+03   1.240851E+03   1.240851E+03   1.240851E+03   1.240851E+03   1.240851E+03   1.240851E+03   1.240851E+03   1.240851E+03   1.240851E+03   1.240851E+03   1.240851E+03   1.240851E+03   1.240851E+03   1.240851E+03   1.240851E+03   1.240851E+03   1.240851E+03   1.240851E+03   1.240851E+03   1.240851E+03   1.240851E+03   1.240851E+03   1.240851E+03   1.240851E+03
   1.240851E+03   1.240851E+03   1.240851E+03   1.240851E+03   1.240851E+03   1.240851E+03   1.240851E+03   1.240851E+03   1.240851E+03   1.240851E+03   1.240851E+03   1.240851E+03   1.240851E+03   1.240851E+03   1.240851E+03   1.240851E+03   1.240851E+03   1.240851E+03   1.240851E+03   1.240851E+03   1.240851E+03   1.240851E+03   1.240851E+03   1.240851E+03   1.240851E+03   1.240851E+03   1.240851E+03   1.240851E+03   1.240851E+03   1.240851E+03   1.240851E+03   1.240851E+03   1.240851E+03   1.240851E+03   1.240851E+03   1.240851E+03   1.240851E+03   1.240851E+03   1.240851E+03   1.240851E+03   1.240851E+03   1.240851E+03   1.240851E+03   1.240851E+03   1.240851E+03   1.240851E+03   1.240851E+03   1.240851E+03   1.240851E+03   1.240851E+03   1.240851E+03   1.240851E+03   1.240851E+03   1.240851E+03   1.240851E+03   1.240851E+03   1.240851E+03   1.240851E+03   1.240851E+03   1.240851E+03   1.240851E+03   1.240851E+03   1.240851E+03   1.240851E+03   1.240851E+03   1.240851E+03   1.240851E+03   1.240851E+03   1.710026E+03   1.667693E+03   1.694768E+03   1.716071E+03   1.240851E+03   1.240851E+03   1.240851E+03   1.240851E+03   1.240851E+03   1.240851E+03   1.240851E+03   1.240851E+03   1.240851E+03   1.240851E+03   1.240851E+03   1.240851E+03   1.240851E+03   1.240851E+03   1.240851E+03   1.240851E+03   1.240851E+03   1.240851E+03   1.240851E+03   1.240851E+03   1.240851E+03   1.240851E+03   1.240851E+03   1.240851E+03   1.240851E+03   1.240851E+03   1.240851E+03   1.240851E+03   1.240851E+03   1.240851E+03   1.240851E+03   1.240851E+03   1.240851E+03   1.240851E+03   1.240851E+03   1.240851E+03   1.240851E+03   1.240851E+03   1.240851E+03   1.240851E+03   1.240851E+03   1.240851E+03   1.240851E+03   1.240851E+03   1.240851E+03   1.240851E+03   1.240851E+03   1.240851E+03   1.240851E+03   1.240851E+03   1.240851E+03   1.240851E+03   1.240851E+03   1.240851E+03   1.240851E+03   1.240851E+03   1.240851E+03   1.240851E+03   1.240851E+03   1.240851E+03   1.240851E+03   1.240851E+03   1.240851E+03   1.240851E+03   1.240851E+03   1.240851E+03   1.240851E+03   1.240851E+03   1.240851E+03   1.240851E+03   1.240851E+03   1.240851E+03   1.240851E+03