# PCG package for  MODFLOW-2005, generated by Flopy.
50 40 1 0
0.01 0.001 1.0 0 0 3 0.5 
