# DIS package for  MODFLOW-2005, generated by Flopy.
         2       250       145         1         5         2
  1  0
CONSTANT    1.000000E+03                           #delr                          
CONSTANT    1.000000E+03                           #delc                          
INTERNAL               1 (145E15.6) -1 #model_top                     
   4.408508E+02   4.408508E+02   4.408508E+02   4.408508E+02   4.408508E+02   4.408508E+02   4.408508E+02   4.408508E+02   4.408508E+02   4.408508E+02   4.408508E+02   4.408508E+02   4.408508E+02   4.408508E+02   4.408508E+02   4.408508E+02   4.408508E+02   4.408508E+02   4.408508E+02   4.408508E+02   4.408508E+02   4.408508E+02   4.408508E+02   4.408508E+02   4.408508E+02   4.408508E+02   4.408508E+02   4.408508E+02   4.408508E+02   4.408508E+02   4.408508E+02   4.408508E+02   4.408508E+02   4.408508E+02   4.408508E+02   4.408508E+02   4.408508E+02   4.408508E+02   4.408508E+02   4.408508E+02   4.408508E+02   4.408508E+02   4.408508E+02   4.408508E+02   4.408508E+02   4.408508E+02   4.408508E+02   4.408508E+02   4.408508E+02   4.408508E+02   4.408508E+02   4.408508E+02   4.408508E+02   4.408508E+02   4.408508E+02   4.408508E+02   4.408508E+02   4.408508E+02   4.408508E+02   4.408508E+02   4.408508E+02   4.408508E+02   4.408508E+02   4.408508E+02   4.408508E+02   4.408508E+02   4.408508E+02   4.408508E+02   4.408508E+02   4.408508E+02   4.408508E+02   4.408508E+02   4.408508E+02   4.408508E+02   4.408508E+02   4.408508E+02   4.408508E+02   4.408508E+02   4.408508E+02   4.408508E+02   4.408508E+02   4.408508E+02   4.408508E+02   4.408508E+02   4.408508E+02   4.408508E+02   4.408508E+02   4.408508E+02   4.408508E+02   4.408508E+02   4.408508E+02   4.408508E+02   4.408508E+02   4.408508E+02   4.408508E+02   4.408508E+02   4.408508E+02   4.408508E+02   4.408508E+02   4.408508E+02   4.408508E+02   4.408508E+02   4.408508E+02   4.408508E+02   4.408508E+02   4.408508E+02   4.408508E+02   4.408508E+02   4.408508E+02   4.408508E+02   4.408508E+02   4.408508E+02   4.408508E+02   4.408508E+02   4.408508E+02   4.408508E+02   4.408508E+02   4.408508E+02   4.408508E+02   4.408508E+02   4.408508E+02   4.408508E+02   4.408508E+02   4.408508E+02   4.408508E+02   4.408508E+02   4.408508E+02   4.408508E+02   4.408508E+02   4.408508E+02   4.408508E+02   4.408508E+02   4.408508E+02   4.408508E+02   4.408508E+02   4.408508E+02   4.408508E+02   4.408508E+02   4.408508E+02   4.408508E+02   4.408508E+02   4.408508E+02   4.408508E+02   4.408508E+02   4.408508E+02
   4.408508E+02   4.408508E+02   4.408508E+02   4.408508E+02   4.408508E+02   4.408508E+02   4.408508E+02   4.408508E+02   4.408508E+02   4.408508E+02   4.408508E+02   4.408508E+02   4.408508E+02   4.408508E+02   4.408508E+02   4.408508E+02   4.408508E+02   4.408508E+02   4.408508E+02   4.408508E+02   4.408508E+02   4.408508E+02   4.408508E+02   4.408508E+02   4.408508E+02   4.408508E+02   4.408508E+02   4.408508E+02   4.408508E+02   4.408508E+02   4.408508E+02   4.408508E+02   4.408508E+02   4.408508E+02   4.408508E+02   4.408508E+02   4.408508E+02   4.408508E+02   4.408508E+02   4.408508E+02   4.408508E+02   4.408508E+02   4.408508E+02   4.408508E+02   4.408508E+02   4.408508E+02   4.408508E+02   4.408508E+02   4.408508E+02   4.408508E+02   4.408508E+02   4.408508E+02   4.408508E+02   4.408508E+02   4.408508E+02   4.408508E+02   4.408508E+02   4.408508E+02   4.408508E+02   4.408508E+02   4.408508E+02   4.408508E+02   4.408508E+02   4.408508E+02   4.408508E+02   4.408508E+02   4.408508E+02   4.408508E+02   4.408508E+02   4.408508E+02   4.408508E+02   4.408508E+02   4.408508E+02   4.408508E+02   4.408508E+02   4.408508E+02   4.408508E+02   4.408508E+02   4.408508E+02   4.408508E+02   4.408508E+02   4.408508E+02   4.408508E+02   4.408508E+02   4.408508E+02   4.408508E+02   4.408508E+02   4.408508E+02   4.408508E+02   4.408508E+02   4.408508E+02   4.408508E+02   4.408508E+02   4.408508E+02   4.408508E+02   4.408508E+02   4.408508E+02   4.408508E+02   4.408508E+02   4.408508E+02   4.408508E+02   4.408508E+02   4.408508E+02   4.408508E+02   4.408508E+02   4.408508E+02   4.408508E+02   4.408508E+02   4.408508E+02   4.408508E+02   4.408508E+02   4.408508E+02   4.408508E+02   4.408508E+02   4.408508E+02   4.408508E+02   4.408508E+02   4.408508E+02   4.408508E+02   4.408508E+02   4.408508E+02   4.408508E+02   4.408508E+02   4.408508E+02   4.408508E+02   4.408508E+02   4.408508E+02   4.408508E+02   4.408508E+02   4.408508E+02   4.408508E+02   4.408508E+02   4.408508E+02   4.408508E+02   4.408508E+02   4.408508E+02   4.408508E+02   4.408508E+02   4.408508E+02   4.408508E+02   4.408508E+02   4.408508E+02   4.408508E+02   4.408508E+02   4.408508E+02
   4.408508E+02   4.408508E+02   4.408508E+02   4.408508E+02   4.408508E+02   4.408508E+02   4.408508E+02   4.408508E+02   4.408508E+02   4.408508E+02   4.408508E+02   4.408508E+02   4.408508E+02   4.408508E+02   4.408508E+02   4.408508E+02   4.408508E+02   4.408508E+02   4.408508E+02   4.408508E+02   4.408508E+02   4.408508E+02   4.408508E+02   4.408508E+02   4.408508E+02   4.408508E+02   4.408508E+02   4.408508E+02   4.408508E+02   4.408508E+02   4.408508E+02   4.408508E+02   4.408508E+02   4.408508E+02   4.408508E+02   4.408508E+02   4.408508E+02   4.408508E+02   4.408508E+02   4.408508E+02   4.408508E+02   4.408508E+02   4.408508E+02   4.408508E+02   4.408508E+02   4.408508E+02   4.408508E+02   4.408508E+02   4.408508E+02   4.408508E+02   4.408508E+02   4.408508E+02   4.408508E+02   4.408508E+02   4.408508E+02   4.408508E+02   4.408508E+02   4.408508E+02   4.408508E+02   4.408508E+02   4.408508E+02   4.408508E+02   4.408508E+02   4.408508E+02   4.408508E+02   4.408508E+02   4.408508E+02   4.408508E+02   4.408508E+02   4.408508E+02   4.408508E+02   4.408508E+02   4.408508E+02   4.408508E+02   4.408508E+02   4.408508E+02   4.408508E+02   4.408508E+02   4.408508E+02   4.408508E+02   4.408508E+02   4.408508E+02   4.408508E+02   4.408508E+02   4.408508E+02   4.408508E+02   4.408508E+02   4.408508E+02   4.408508E+02   4.408508E+02   4.408508E+02   4.408508E+02   4.408508E+02   4.408508E+02   4.408508E+02   4.408508E+02   4.408508E+02   4.408508E+02   4.408508E+02   4.408508E+02   4.408508E+02   4.408508E+02   4.408508E+02   4.408508E+02   4.408508E+02   4.408508E+02   4.408508E+02   4.408508E+02   4.408508E+02   4.408508E+02   4.408508E+02   4.408508E+02   4.408508E+02   4.408508E+02   4.408508E+02   4.408508E+02   4.408508E+02   4.408508E+02   4.408508E+02   4.408508E+02   4.408508E+02   4.408508E+02   4.408508E+02   4.408508E+02   4.408508E+02   4.408508E+02   4.408508E+02   4.408508E+02   4.408508E+02   4.408508E+02   4.408508E+02   4.408508E+02   4.408508E+02   4.408508E+02   4.408508E+02   4.408508E+02   4.408508E+02   4.408508E+02   4.408508E+02   4.408508E+02   4.408508E+02   4.408508E+02   4.408508E+02   4.408508E+02   4.408508E+02
   4.408508E+02   4.408508E+02   4.408508E+02   4.408508E+02   4.408508E+02   4.408508E+02   4.408508E+02   4.408508E+02   4.408508E+02   4.408508E+02   4.408508E+02   4.408508E+02   4.408508E+02   4.408508E+02   4.408508E+02   4.408508E+02   4.408508E+02   4.408508E+02   4.408508E+02   4.408508E+02   4.408508E+02   4.408508E+02   4.408508E+02   4.408508E+02   4.408508E+02   4.408508E+02   4.408508E+02   4.408508E+02   4.408508E+02   4.408508E+02   4.408508E+02   4.408508E+02   4.408508E+02   4.408508E+02   4.408508E+02   4.408508E+02   4.408508E+02   4.408508E+02   4.408508E+02   4.408508E+02   4.408508E+02   4.408508E+02   4.408508E+02   4.408508E+02   4.408508E+02   4.408508E+02   4.408508E+02   4.408508E+02   4.408508E+02   4.408508E+02   4.408508E+02   4.408508E+02   4.408508E+02   4.408508E+02   4.408508E+02   4.408508E+02   4.408508E+02   4.408508E+02   4.408508E+02   4.408508E+02   4.408508E+02   4.408508E+02   4.408508E+02   4.408508E+02   4.408508E+02   4.408508E+02   4.408508E+02   4.408508E+02   4.408508E+02   4.408508E+02   4.408508E+02   1.321602E+03   1.337096E+03   4.408508E+02   4.408508E+02   4.408508E+02   4.408508E+02   4.408508E+02   4.408508E+02   4.408508E+02   4.408508E+02   4.408508E+02   4.408508E+02   4.408508E+02   4.408508E+02   4.408508E+02   4.408508E+02   4.408508E+02   4.408508E+02   4.408508E+02   4.408508E+02   4.408508E+02   4.408508E+02   4.408508E+02   4.408508E+02   4.408508E+02   4.408508E+02   4.408508E+02   4.408508E+02   4.408508E+02   4.408508E+02   4.408508E+02   4.408508E+02   4.408508E+02   4.408508E+02   4.408508E+02   4.408508E+02   4.408508E+02   4.408508E+02   4.408508E+02   4.408508E+02   4.408508E+02   4.408508E+02   4.408508E+02   4.408508E+02   4.408508E+02   4.408508E+02   4.408508E+02   4.408508E+02   4.408508E+02   4.408508E+02   4.408508E+02   4.408508E+02   4.408508E+02   4.408508E+02   4.408508E+02   4.408508E+02   4.408508E+02   4.408508E+02   4.408508E+02   4.408508E+02   4.408508E+02   4.408508E+02   4.408508E+02   4.408508E+02   4.408508E+02   4.408508E+02   4.408508E+02   4.408508E+02   4.408508E+02   4.408508E+02   4.408508E+02   4.408508E+02   4.408508E+02   4.408508E+02
   4.408508E+02   4.408508E+02   4.408508E+02   4.408508E+02   4.408508E+02   4.408508E+02   4.408508E+02   4.408508E+02   4.408508E+02   4.408508E+02   4.408508E+02   4.408508E+02   4.408508E+02   4.408508E+02   4.408508E+02   4.408508E+02   4.408508E+02   4.408508E+02   4.408508E+02   4.408508E+02   4.408508E+02   4.408508E+02   4.408508E+02   4.408508E+02   4.408508E+02   4.408508E+02   4.408508E+02   4.408508E+02   4.408508E+02   4.408508E+02   4.408508E+02   4.408508E+02   4.408508E+02   4.408508E+02   4.408508E+02   4.408508E+02   4.408508E+02   4.408508E+02   4.408508E+02   4.408508E+02   4.408508E+02   4.408508E+02   4.408508E+02   4.408508E+02   4.408508E+02   4.408508E+02   4.408508E+02   4.408508E+02   4.408508E+02   4.408508E+02   4.408508E+02   4.408508E+02   4.408508E+02   4.408508E+02   4.408508E+02   4.408508E+02   4.408508E+02   4.408508E+02   4.408508E+02   4.408508E+02   4.408508E+02   4.408508E+02   4.408508E+02   4.408508E+02   4.408508E+02   4.408508E+02   4.408508E+02   4.408508E+02   4.408508E+02   4.408508E+02   1.243607E+03   1.270123E+03   1.301610E+03   4.408508E+02   4.408508E+02   4.408508E+02   4.408508E+02   4.408508E+02   4.408508E+02   4.408508E+02   4.408508E+02   4.408508E+02   4.408508E+02   4.408508E+02   4.408508E+02   4.408508E+02   4.408508E+02   4.408508E+02   4.408508E+02   4.408508E+02   4.408508E+02   4.408508E+02   4.408508E+02   4.408508E+02   4.408508E+02   4.408508E+02   4.408508E+02   4.408508E+02   4.408508E+02   4.408508E+02   4.408508E+02   4.408508E+02   4.408508E+02   4.408508E+02   4.408508E+02   4.408508E+02   4.408508E+02   4.408508E+02   4.408508E+02   4.408508E+02   4.408508E+02   4.408508E+02   4.408508E+02   4.408508E+02   4.408508E+02   4.408508E+02   4.408508E+02   4.408508E+02   4.408508E+02   4.408508E+02   4.408508E+02   4.408508E+02   4.408508E+02   4.408508E+02   4.408508E+02   4.408508E+02   4.408508E+02   4.408508E+02   4.408508E+02   4.408508E+02   4.408508E+02   4.408508E+02   4.408508E+02   4.408508E+02   4.408508E+02   4.408508E+02   4.408508E+02   4.408508E+02   4.408508E+02   4.408508E+02   4.408508E+02   4.408508E+02   4.408508E+02   4.408508E+02   4.408508E+02
   4.408508E+02   4.408508E+02   4.408508E+02   4.408508E+02   4.408508E+02   4.408508E+02   4.408508E+02   4.408508E+02   4.408508E+02   4.408508E+02   4.408508E+02   4.408508E+02   4.408508E+02   4.408508E+02   4.408508E+02   4.408508E+02   4.408508E+02   4.408508E+02   4.408508E+02   4.408508E+02   4.408508E+02   4.408508E+02   4.408508E+02   4.408508E+02   4.408508E+02   4.408508E+02   4.408508E+02   4.408508E+02   4.408508E+02   4.408508E+02   4.408508E+02   4.408508E+02   4.408508E+02   4.408508E+02   4.408508E+02   4.408508E+02   4.408508E+02   4.408508E+02   4.408508E+02   4.408508E+02   4.408508E+02   4.408508E+02   4.408508E+02   4.408508E+02   4.408508E+02   4.408508E+02   4.408508E+02   4.408508E+02   4.408508E+02   4.408508E+02   4.408508E+02   4.408508E+02   4.408508E+02   4.408508E+02   4.408508E+02   4.408508E+02   4.408508E+02   4.408508E+02   4.408508E+02   4.408508E+02   4.408508E+02   4.408508E+02   4.408508E+02   4.408508E+02   4.408508E+02   4.408508E+02   4.408508E+02   4.408508E+02   4.408508E+02   4.408508E+02   1.246360E+03   1.331583E+03   1.386787E+03   4.408508E+02   4.408508E+02   4.408508E+02   4.408508E+02   4.408508E+02   4.408508E+02   4.408508E+02   4.408508E+02   4.408508E+02   4.408508E+02   4.408508E+02   4.408508E+02   4.408508E+02   4.408508E+02   4.408508E+02   4.408508E+02   4.408508E+02   4.408508E+02   4.408508E+02   4.408508E+02   4.408508E+02   4.408508E+02   4.408508E+02   4.408508E+02   4.408508E+02   4.408508E+02   4.408508E+02   4.408508E+02   4.408508E+02   4.408508E+02   4.408508E+02   4.408508E+02   4.408508E+02   4.408508E+02   4.408508E+02   4.408508E+02   4.408508E+02   4.408508E+02   4.408508E+02   4.408508E+02   4.408508E+02   4.408508E+02   4.408508E+02   4.408508E+02   4.408508E+02   4.408508E+02   4.408508E+02   4.408508E+02   4.408508E+02   4.408508E+02   4.408508E+02   4.408508E+02   4.408508E+02   4.408508E+02   4.408508E+02   4.408508E+02   4.408508E+02   4.408508E+02   4.408508E+02   4.408508E+02   4.408508E+02   4.408508E+02   4.408508E+02   4.408508E+02   4.408508E+02   4.408508E+02   4.408508E+02   4.408508E+02   4.408508E+02   4.408508E+02   4.408508E+02   4.408508E+02
   4.408508E+02   4.408508E+02   4.408508E+02   4.408508E+02   4.408508E+02   4.408508E+02   4.408508E+02   4.408508E+02   4.408508E+02   4.408508E+02   4.408508E+02   4.408508E+02   4.408508E+02   4.408508E+02   4.408508E+02   4.408508E+02   4.408508E+02   4.408508E+02   4.408508E+02   4.408508E+02   4.408508E+02   4.408508E+02   4.408508E+02   4.408508E+02   4.408508E+02   4.408508E+02   4.408508E+02   4.408508E+02   4.408508E+02   4.408508E+02   4.408508E+02   4.408508E+02   4.408508E+02   4.408508E+02   4.408508E+02   4.408508E+02   4.408508E+02   4.408508E+02   4.408508E+02   4.408508E+02   4.408508E+02   4.408508E+02   4.408508E+02   4.408508E+02   4.408508E+02   4.408508E+02   4.408508E+02   4.408508E+02   4.408508E+02   4.408508E+02   4.408508E+02   4.408508E+02   4.408508E+02   4.408508E+02   4.408508E+02   4.408508E+02   4.408508E+02   4.408508E+02   4.408508E+02   4.408508E+02   4.408508E+02   4.408508E+02   4.408508E+02   4.408508E+02   4.408508E+02   4.408508E+02   4.408508E+02   4.408508E+02   4.408508E+02   1.185656E+03   1.231674E+03   1.361284E+03   4.408508E+02   4.408508E+02   4.408508E+02   4.408508E+02   4.408508E+02   4.408508E+02   4.408508E+02   4.408508E+02   4.408508E+02   4.408508E+02   4.408508E+02   4.408508E+02   4.408508E+02   4.408508E+02   4.408508E+02   4.408508E+02   4.408508E+02   4.408508E+02   4.408508E+02   4.408508E+02   4.408508E+02   4.408508E+02   4.408508E+02   4.408508E+02   4.408508E+02   4.408508E+02   4.408508E+02   4.408508E+02   4.408508E+02   4.408508E+02   4.408508E+02   4.408508E+02   4.408508E+02   4.408508E+02   4.408508E+02   4.408508E+02   4.408508E+02   4.408508E+02   4.408508E+02   4.408508E+02   4.408508E+02   4.408508E+02   4.408508E+02   4.408508E+02   4.408508E+02   4.408508E+02   4.408508E+02   4.408508E+02   4.408508E+02   4.408508E+02   4.408508E+02   4.408508E+02   4.408508E+02   4.408508E+02   4.408508E+02   4.408508E+02   4.408508E+02   4.408508E+02   4.408508E+02   4.408508E+02   4.408508E+02   4.408508E+02   4.408508E+02   4.408508E+02   4.408508E+02   4.408508E+02   4.408508E+02   4.408508E+02   4.408508E+02   4.408508E+02   4.408508E+02   4.408508E+02   4.408508E+02
   4.408508E+02   4.408508E+02   4.408508E+02   4.408508E+02   4.408508E+02   4.408508E+02   4.408508E+02   4.408508E+02   4.408508E+02   4.408508E+02   4.408508E+02   4.408508E+02   4.408508E+02   4.408508E+02   4.408508E+02   4.408508E+02   4.408508E+02   4.408508E+02   4.408508E+02   4.408508E+02   4.408508E+02   4.408508E+02   4.408508E+02   4.408508E+02   4.408508E+02   4.408508E+02   4.408508E+02   4.408508E+02   4.408508E+02   4.408508E+02   4.408508E+02   4.408508E+02   4.408508E+02   4.408508E+02   4.408508E+02   4.408508E+02   4.408508E+02   4.408508E+02   4.408508E+02   4.408508E+02   4.408508E+02   4.408508E+02   4.408508E+02   4.408508E+02   4.408508E+02   4.408508E+02   4.408508E+02   4.408508E+02   4.408508E+02   4.408508E+02   4.408508E+02   4.408508E+02   4.408508E+02   4.408508E+02   4.408508E+02   4.408508E+02   4.408508E+02   4.408508E+02   4.408508E+02   4.408508E+02   4.408508E+02   4.408508E+02   4.408508E+02   4.408508E+02   4.408508E+02   4.408508E+02   4.408508E+02   4.408508E+02   4.408508E+02   1.128099E+03   1.201553E+03   1.317703E+03   4.408508E+02   4.408508E+02   4.408508E+02   4.408508E+02   4.408508E+02   4.408508E+02   4.408508E+02   4.408508E+02   4.408508E+02   4.408508E+02   4.408508E+02   4.408508E+02   4.408508E+02   4.408508E+02   4.408508E+02   4.408508E+02   4.408508E+02   4.408508E+02   4.408508E+02   4.408508E+02   4.408508E+02   4.408508E+02   4.408508E+02   4.408508E+02   4.408508E+02   4.408508E+02   4.408508E+02   4.408508E+02   4.408508E+02   4.408508E+02   4.408508E+02   4.408508E+02   4.408508E+02   4.408508E+02   4.408508E+02   4.408508E+02   4.408508E+02   4.408508E+02   4.408508E+02   4.408508E+02   4.408508E+02   4.408508E+02   4.408508E+02   4.408508E+02   4.408508E+02   4.408508E+02   4.408508E+02   4.408508E+02   4.408508E+02   4.408508E+02   4.408508E+02   4.408508E+02   4.408508E+02   4.408508E+02   4.408508E+02   4.408508E+02   4.408508E+02   4.408508E+02   4.408508E+02   4.408508E+02   4.408508E+02   4.408508E+02   4.408508E+02   4.408508E+02   4.408508E+02   4.408508E+02   4.408508E+02   4.408508E+02   4.408508E+02   4.408508E+02   4.408508E+02   4.408508E+02   4.408508E+02
   4.408508E+02   4.408508E+02   4.408508E+02   4.408508E+02   4.408508E+02   4.408508E+02   4.408508E+02   4.408508E+02   4.408508E+02   4.408508E+02   4.408508E+02   4.408508E+02   4.408508E+02   4.408508E+02   4.408508E+02   4.408508E+02   4.408508E+02   4.408508E+02   4.408508E+02   4.408508E+02   4.408508E+02   4.408508E+02   4.408508E+02   4.408508E+02   4.408508E+02   4.408508E+02   4.408508E+02   4.408508E+02   4.408508E+02   4.408508E+02   4.408508E+02   4.408508E+02   4.408508E+02   4.408508E+02   4.408508E+02   4.408508E+02   4.408508E+02   4.408508E+02   4.408508E+02   4.408508E+02   4.408508E+02   4.408508E+02   4.408508E+02   4.408508E+02   4.408508E+02   4.408508E+02   4.408508E+02   4.408508E+02   4.408508E+02   4.408508E+02   4.408508E+02   4.408508E+02   4.408508E+02   4.408508E+02   4.408508E+02   4.408508E+02   4.408508E+02   4.408508E+02   4.408508E+02   4.408508E+02   4.408508E+02   4.408508E+02   4.408508E+02   4.408508E+02   4.408508E+02   4.408508E+02   4.408508E+02   4.408508E+02   1.173117E+03   1.138403E+03   1.206182E+03   1.281113E+03   4.408508E+02   4.408508E+02   4.408508E+02   4.408508E+02   4.408508E+02   4.408508E+02   4.408508E+02   4.408508E+02   4.408508E+02   4.408508E+02   4.408508E+02   4.408508E+02   4.408508E+02   4.408508E+02   4.408508E+02   4.408508E+02   4.408508E+02   4.408508E+02   4.408508E+02   4.408508E+02   4.408508E+02   4.408508E+02   4.408508E+02   4.408508E+02   4.408508E+02   4.408508E+02   4.408508E+02   4.408508E+02   4.408508E+02   4.408508E+02   4.408508E+02   4.408508E+02   4.408508E+02   4.408508E+02   4.408508E+02   4.408508E+02   4.408508E+02   4.408508E+02   4.408508E+02   4.408508E+02   4.408508E+02   4.408508E+02   4.408508E+02   4.408508E+02   4.408508E+02   4.408508E+02   4.408508E+02   4.408508E+02   4.408508E+02   4.408508E+02   4.408508E+02   4.408508E+02   4.408508E+02   4.408508E+02   4.408508E+02   4.408508E+02   4.408508E+02   4.408508E+02   4.408508E+02   4.408508E+02   4.408508E+02   4.408508E+02   4.408508E+02   4.408508E+02   4.408508E+02   4.408508E+02   4.408508E+02   4.408508E+02   4.408508E+02   4.408508E+02   4.408508E+02   4.408508E+02   4.408508E+02
   4.408508E+02   4.408508E+02   4.408508E+02   4.408508E+02   4.408508E+02   4.408508E+02   4.408508E+02   4.408508E+02   4.408508E+02   4.408508E+02   4.408508E+02   4.408508E+02   4.408508E+02   4.408508E+02   4.408508E+02   4.408508E+02   4.408508E+02   4.408508E+02   4.408508E+02   4.408508E+02   4.408508E+02   4.408508E+02   4.408508E+02   4.408508E+02   4.408508E+02   4.408508E+02   4.408508E+02   4.408508E+02   4.408508E+02   4.408508E+02   4.408508E+02   4.408508E+02   4.408508E+02   4.408508E+02   4.408508E+02   4.408508E+02   4.408508E+02   4.408508E+02   4.408508E+02   4.408508E+02   4.408508E+02   4.408508E+02   4.408508E+02   4.408508E+02   4.408508E+02   4.408508E+02   4.408508E+02   4.408508E+02   4.408508E+02   4.408508E+02   4.408508E+02   4.408508E+02   4.408508E+02   4.408508E+02   4.408508E+02   4.408508E+02   4.408508E+02   4.408508E+02   4.408508E+02   4.408508E+02   4.408508E+02   4.408508E+02   4.408508E+02   4.408508E+02   4.408508E+02   4.408508E+02   4.408508E+02   4.408508E+02   1.234060E+03   1.156819E+03   1.199108E+03   1.237663E+03   4.408508E+02   4.408508E+02   4.408508E+02   4.408508E+02   4.408508E+02   4.408508E+02   4.408508E+02   4.408508E+02   4.408508E+02   4.408508E+02   4.408508E+02   4.408508E+02   4.408508E+02   4.408508E+02   4.408508E+02   4.408508E+02   4.408508E+02   4.408508E+02   4.408508E+02   4.408508E+02   4.408508E+02   4.408508E+02   4.408508E+02   4.408508E+02   4.408508E+02   4.408508E+02   4.408508E+02   4.408508E+02   4.408508E+02   4.408508E+02   4.408508E+02   4.408508E+02   4.408508E+02   4.408508E+02   4.408508E+02   4.408508E+02   4.408508E+02   4.408508E+02   4.408508E+02   4.408508E+02   4.408508E+02   4.408508E+02   4.408508E+02   4.408508E+02   4.408508E+02   4.408508E+02   4.408508E+02   4.408508E+02   4.408508E+02   4.408508E+02   4.408508E+02   4.408508E+02   4.408508E+02   4.408508E+02   4.408508E+02   4.408508E+02   4.408508E+02   4.408508E+02   4.408508E+02   4.408508E+02   4.408508E+02   4.408508E+02   4.408508E+02   4.408508E+02   4.408508E+02   4.408508E+02   4.408508E+02   4.408508E+02   4.408508E+02   4.408508E+02   4.408508E+02   4.408508E+02   4.408508E+02
   4.408508E+02   4.408508E+02   4.408508E+02   4.408508E+02   4.408508E+02   4.408508E+02   4.408508E+02   4.408508E+02   4.408508E+02   4.408508E+02   4.408508E+02   4.408508E+02   4.408508E+02   4.408508E+02   4.408508E+02   4.408508E+02   4.408508E+02   4.408508E+02   4.408508E+02   4.408508E+02   4.408508E+02   4.408508E+02   4.408508E+02   4.408508E+02   4.408508E+02   4.408508E+02   4.408508E+02   4.408508E+02   4.408508E+02   4.408508E+02   4.408508E+02   4.408508E+02   4.408508E+02   4.408508E+02   4.408508E+02   4.408508E+02   4.408508E+02   4.408508E+02   4.408508E+02   4.408508E+02   4.408508E+02   4.408508E+02   4.408508E+02   4.408508E+02   4.408508E+02   4.408508E+02   4.408508E+02   4.408508E+02   4.408508E+02   4.408508E+02   4.408508E+02   4.408508E+02   4.408508E+02   4.408508E+02   4.408508E+02   4.408508E+02   4.408508E+02   4.408508E+02   4.408508E+02   4.408508E+02   4.408508E+02   4.408508E+02   4.408508E+02   4.408508E+02   4.408508E+02   4.408508E+02   4.408508E+02   4.408508E+02   1.230776E+03   1.119476E+03   1.162324E+03   1.182143E+03   4.408508E+02   4.408508E+02   4.408508E+02   4.408508E+02   4.408508E+02   4.408508E+02   4.408508E+02   4.408508E+02   4.408508E+02   4.408508E+02   4.408508E+02   4.408508E+02   4.408508E+02   4.408508E+02   4.408508E+02   4.408508E+02   4.408508E+02   4.408508E+02   4.408508E+02   4.408508E+02   4.408508E+02   4.408508E+02   4.408508E+02   4.408508E+02   4.408508E+02   4.408508E+02   4.408508E+02   4.408508E+02   4.408508E+02   4.408508E+02   4.408508E+02   4.408508E+02   4.408508E+02   4.408508E+02   4.408508E+02   4.408508E+02   4.408508E+02   4.408508E+02   4.408508E+02   4.408508E+02   4.408508E+02   4.408508E+02   4.408508E+02   4.408508E+02   4.408508E+02   4.408508E+02   4.408508E+02   4.408508E+02   4.408508E+02   4.408508E+02   4.408508E+02   4.408508E+02   4.408508E+02   4.408508E+02   4.408508E+02   4.408508E+02   4.408508E+02   4.408508E+02   4.408508E+02   4.408508E+02   4.408508E+02   4.408508E+02   4.408508E+02   4.408508E+02   4.408508E+02   4.408508E+02   4.408508E+02   4.408508E+02   4.408508E+02   4.408508E+02   4.408508E+02   4.408508E+02   4.408508E+02
   4.408508E+02   4.408508E+02   4.408508E+02   4.408508E+02   4.408508E+02   4.408508E+02   4.408508E+02   4.408508E+02   4.408508E+02   4.408508E+02   4.408508E+02   4.408508E+02   4.408508E+02   4.408508E+02   4.408508E+02   4.408508E+02   4.408508E+02   4.408508E+02   4.408508E+02   4.408508E+02   4.408508E+02   4.408508E+02   4.408508E+02   4.408508E+02   4.408508E+02   4.408508E+02   4.408508E+02   4.408508E+02   4.408508E+02   4.408508E+02   4.408508E+02   4.408508E+02   4.408508E+02   4.408508E+02   4.408508E+02   4.408508E+02   4.408508E+02   4.408508E+02   4.408508E+02   4.408508E+02   4.408508E+02   4.408508E+02   4.408508E+02   4.408508E+02   4.408508E+02   4.408508E+02   4.408508E+02   4.408508E+02   4.408508E+02   4.408508E+02   4.408508E+02   4.408508E+02   4.408508E+02   4.408508E+02   4.408508E+02   4.408508E+02   4.408508E+02   4.408508E+02   4.408508E+02   4.408508E+02   4.408508E+02   4.408508E+02   4.408508E+02   4.408508E+02   4.408508E+02   4.408508E+02   4.408508E+02   4.408508E+02   1.173993E+03   1.081509E+03   1.121068E+03   1.132972E+03   4.408508E+02   4.408508E+02   4.408508E+02   4.408508E+02   4.408508E+02   4.408508E+02   4.408508E+02   4.408508E+02   4.408508E+02   4.408508E+02   4.408508E+02   4.408508E+02   4.408508E+02   4.408508E+02   4.408508E+02   4.408508E+02   4.408508E+02   4.408508E+02   4.408508E+02   4.408508E+02   4.408508E+02   4.408508E+02   4.408508E+02   4.408508E+02   4.408508E+02   4.408508E+02   4.408508E+02   4.408508E+02   4.408508E+02   4.408508E+02   4.408508E+02   4.408508E+02   4.408508E+02   4.408508E+02   4.408508E+02   4.408508E+02   4.408508E+02   4.408508E+02   4.408508E+02   4.408508E+02   4.408508E+02   4.408508E+02   4.408508E+02   4.408508E+02   4.408508E+02   4.408508E+02   4.408508E+02   4.408508E+02   4.408508E+02   4.408508E+02   4.408508E+02   4.408508E+02   4.408508E+02   4.408508E+02   4.408508E+02   4.408508E+02   4.408508E+02   4.408508E+02   4.408508E+02   4.408508E+02   4.408508E+02   4.408508E+02   4.408508E+02   4.408508E+02   4.408508E+02   4.408508E+02   4.408508E+02   4.408508E+02   4.408508E+02   4.408508E+02   4.408508E+02   4.408508E+02   4.408508E+02
   4.408508E+02   4.408508E+02   4.408508E+02   4.408508E+02   4.408508E+02   4.408508E+02   4.408508E+02   4.408508E+02   4.408508E+02   4.408508E+02   4.408508E+02   4.408508E+02   4.408508E+02   4.408508E+02   4.408508E+02   4.408508E+02   4.408508E+02   4.408508E+02   4.408508E+02   4.408508E+02   4.408508E+02   4.408508E+02   4.408508E+02   4.408508E+02   4.408508E+02   4.408508E+02   4.408508E+02   4.408508E+02   4.408508E+02   4.408508E+02   4.408508E+02   4.408508E+02   4.408508E+02   4.408508E+02   4.408508E+02   4.408508E+02   4.408508E+02   4.408508E+02   4.408508E+02   4.408508E+02   4.408508E+02   4.408508E+02   4.408508E+02   4.408508E+02   4.408508E+02   4.408508E+02   4.408508E+02   4.408508E+02   4.408508E+02   4.408508E+02   4.408508E+02   4.408508E+02   4.408508E+02   4.408508E+02   4.408508E+02   4.408508E+02   4.408508E+02   4.408508E+02   4.408508E+02   4.408508E+02   4.408508E+02   4.408508E+02   4.408508E+02   4.408508E+02   4.408508E+02   4.408508E+02   4.408508E+02   4.408508E+02   1.110026E+03   1.067693E+03   1.094768E+03   1.116071E+03   4.408508E+02   4.408508E+02   4.408508E+02   4.408508E+02   4.408508E+02   4.408508E+02   4.408508E+02   4.408508E+02   4.408508E+02   4.408508E+02   4.408508E+02   4.408508E+02   4.408508E+02   4.408508E+02   4.408508E+02   4.408508E+02   4.408508E+02   4.408508E+02   4.408508E+02   4.408508E+02   4.408508E+02   4.408508E+02   4.408508E+02   4.408508E+02   4.408508E+02   4.408508E+02   4.408508E+02   4.408508E+02   4.408508E+02   4.408508E+02   4.408508E+02   4.408508E+02   4.408508E+02   4.408508E+02   4.408508E+02   4.408508E+02   4.408508E+02   4.408508E+02   4.408508E+02   4.408508E+02   4.408508E+02   4.408508E+02   4.408508E+02   4.408508E+02   4.408508E+02   4.408508E+02   4.408508E+02   4.408508E+02   4.408508E+02   4.408508E+02   4.408508E+02   4.408508E+02   4.408508E+02   4.408508E+02   4.408508E+02   4.408508E+02   4.408508E+02   4.408508E+02   4.408508E+02   4.408508E+02   4.408508E+02   4.408508E+02   4.408508E+02   4.408508E+02   4.408508E+02   4.408508E+02   4.408508E+02   4.408508E+02   4.408508E+02   4.408508E+02   4.408508E+02   4.408508E+02   4.408508E+02