# GHB package for  MODFLOW-2005, generated by Flopy.
        57         0
        57         0 # stress period 1
         1       250        52         -295.35          2.3115
         1       250        53         -295.35          2.3115
         1       250        54         -295.35          2.3115
         1       250        55         -295.35          2.3115
         1       250        56         -295.35          2.3115
         1       250        57         -295.35          2.3115
         1       250        58         -295.35          2.3115
         1       250        59         -295.35          2.3115
         1       250        60         -295.35          2.3115
         1       250        61         -295.35          2.3115
         1       250        62         -295.35          2.3115
         1       250        63         -295.35          2.3115
         1       250        64         -295.35          2.3115
         1       250        65         -295.35          2.3115
         1       250        66         -295.35          2.3115
         1       250        67         -295.35          2.3115
         1       250        68         -295.35          2.3115
         1       250        69         -295.35          2.3115
         1       250        70         -295.35          2.3115
         1       250        71         -295.35          2.3115
         1       250        72         -295.35          2.3115
         1       250        73         -295.35          2.3115
         1       250        74         -295.35          2.3115
         1       250        75         -295.35          2.3115
         1       250        76         -295.35          2.3115
         1       250        77         -295.35          2.3115
         1       250        78         -295.35          2.3115
         1       250        79         -295.35          2.3115
         1       250        80         -295.35          2.3115
         1       250        81         -295.35          2.3115
         1       250        82         -295.35          2.3115
         1       250        83         -295.35          2.3115
         1       250        84         -295.35          2.3115
         1       250        85         -295.35          2.3115
         1       250        86         -295.35          2.3115
         1       250        87         -295.35          2.3115
         1       250        88         -295.35          2.3115
         1       250        89         -295.35          2.3115
         1       250        90         -295.35          2.3115
         1       250        91         -295.35          2.3115
         1       250        92         -295.35          2.3115
         1       250        93         -295.35          2.3115
         1       250        94         -295.35          2.3115
         1       250        95         -295.35          2.3115
         1       250        96         -295.35          2.3115
         1       250        97         -295.35          2.3115
         1       250        98         -295.35          2.3115
         1       250        99         -295.35          2.3115
         1       250       100         -295.35          2.3115
         1       250       101         -295.35          2.3115
         1       250       102         -295.35          2.3115
         1       250       103         -295.35          2.3115
         1       250       104         -295.35          2.3115
         1       250       105         -295.35          2.3115
         1       250       106         -295.35          2.3115
         1       250       107         -295.35          2.3115
         1       250       108         -295.35          2.3115
