# WEL package for  MODFLOW-2005, generated by Flopy.
        20         0 
        20         0 # stress period 1
         1        63        94             0.0
         1        74        69             0.0
         1        87        47             0.0
         1        97        61             0.0
         1       105        89             0.0
         1       127        57             0.0
         2       143        83             0.0
         2       145        89             0.0
         2       149        85             0.0
         1       155        59             0.0
         1       165        37             0.0
         1       172        55             0.0
         1       185        86             0.0
         1       200        92             0.0
         1       201        51             0.0
         1       201        79             0.0
         1       216        45             0.0
         1       221        93             0.0
         1       227        77             0.0
         1       244        92             0.0
