# GHB package for  MODFLOW-2005, generated by Flopy.
       114         0
       114         0 # stress period 1
         1       250        52          1435.0             0.1
         2       250        52          1410.0             0.1
         1       250        53          1435.0             0.1
         2       250        53          1410.0             0.1
         1       250        54          1435.0             0.1
         2       250        54          1410.0             0.1
         1       250        55          1435.0             0.1
         2       250        55          1410.0             0.1
         1       250        56          1435.0             0.1
         2       250        56          1410.0             0.1
         1       250        57          1435.0             0.1
         2       250        57          1410.0             0.1
         1       250        58          1435.0             0.1
         2       250        58          1410.0             0.1
         1       250        59          1435.0             0.1
         2       250        59          1410.0             0.1
         1       250        60          1435.0             0.1
         2       250        60          1410.0             0.1
         1       250        61          1435.0             0.1
         2       250        61          1410.0             0.1
         1       250        62          1435.0             0.1
         2       250        62          1410.0             0.1
         1       250        63          1435.0             0.1
         2       250        63          1410.0             0.1
         1       250        64          1435.0             0.1
         2       250        64          1410.0             0.1
         1       250        65          1435.0             0.1
         2       250        65          1410.0             0.1
         1       250        66          1435.0             0.1
         2       250        66          1410.0             0.1
         1       250        67          1435.0             0.1
         2       250        67          1410.0             0.1
         1       250        68          1435.0             0.1
         2       250        68          1410.0             0.1
         1       250        69          1435.0             0.1
         2       250        69          1410.0             0.1
         1       250        70          1435.0             0.1
         2       250        70          1410.0             0.1
         1       250        71          1435.0             0.1
         2       250        71          1410.0             0.1
         1       250        72          1435.0             0.1
         2       250        72          1410.0             0.1
         1       250        73          1435.0             0.1
         2       250        73          1410.0             0.1
         1       250        74          1435.0             0.1
         2       250        74          1410.0             0.1
         1       250        75          1435.0             0.1
         2       250        75          1410.0             0.1
         1       250        76          1435.0             0.1
         2       250        76          1410.0             0.1
         1       250        77          1435.0             0.1
         2       250        77          1410.0             0.1
         1       250        78          1435.0             0.1
         2       250        78          1410.0             0.1
         1       250        79          1435.0             0.1
         2       250        79          1410.0             0.1
         1       250        80          1435.0             0.1
         2       250        80          1410.0             0.1
         1       250        81          1435.0             0.1
         2       250        81          1410.0             0.1
         1       250        82          1435.0             0.1
         2       250        82          1410.0             0.1
         1       250        83          1435.0             0.1
         2       250        83          1410.0             0.1
         1       250        84          1435.0             0.1
         2       250        84          1410.0             0.1
         1       250        85          1435.0             0.1
         2       250        85          1410.0             0.1
         1       250        86          1435.0             0.1
         2       250        86          1410.0             0.1
         1       250        87          1435.0             0.1
         2       250        87          1410.0             0.1
         1       250        88          1435.0             0.1
         2       250        88          1410.0             0.1
         1       250        89          1435.0             0.1
         2       250        89          1410.0             0.1
         1       250        90          1435.0             0.1
         2       250        90          1410.0             0.1
         1       250        91          1435.0             0.1
         2       250        91          1410.0             0.1
         1       250        92          1435.0             0.1
         2       250        92          1410.0             0.1
         1       250        93          1435.0             0.1
         2       250        93          1410.0             0.1
         1       250        94          1435.0             0.1
         2       250        94          1410.0             0.1
         1       250        95          1435.0             0.1
         2       250        95          1410.0             0.1
         1       250        96          1435.0             0.1
         2       250        96          1410.0             0.1
         1       250        97          1435.0             0.1
         2       250        97          1410.0             0.1
         1       250        98          1435.0             0.1
         2       250        98          1410.0             0.1
         1       250        99          1435.0             0.1
         2       250        99          1410.0             0.1
         1       250       100          1435.0             0.1
         2       250       100          1410.0             0.1
         1       250       101          1435.0             0.1
         2       250       101          1410.0             0.1
         1       250       102          1435.0             0.1
         2       250       102          1410.0             0.1
         1       250       103          1435.0             0.1
         2       250       103          1410.0             0.1
         1       250       104          1435.0             0.1
         2       250       104          1410.0             0.1
         1       250       105          1435.0             0.1
         2       250       105          1410.0             0.1
         1       250       106          1435.0             0.1
         2       250       106          1410.0             0.1
         1       250       107          1435.0             0.1
         2       250       107          1410.0             0.1
         1       250       108          1435.0             0.1
         2       250       108          1410.0             0.1
