# WEL package for  MODFLOW-2005, generated by Flopy.
        39         0 
        39         0 # stress period 1
         2       250        61      -3000000.0
         2       246        64      -3000000.0
         2       241        62      -3000000.0
         2       236        61      -3000000.0
         2       231        56      -3000000.0
         2       224        58      -3000000.0
         2       213        56      -3000000.0
         2       216        45      -3000000.0
         2       201        51      -3000000.0
         2       192        63      -3000000.0
         1       180        65     -70000000.0
         1       172        55     -70000000.0
         1       155        59     -70000000.0
         1       157        73     -70000000.0
         1       141        71     -70000000.0
         1       162        84     -70000000.0
         1       170        81     -70000000.0
         1       183        76     -70000000.0
         1       195        72     -70000000.0
         1       185        86     -70000000.0
         1       201        79     -70000000.0
         1       209        67     -70000000.0
         1       205        69     -70000000.0
         1       217        72     -70000000.0
         1       227        70     -70000000.0
         1       232        72     -70000000.0
         1       238        73     -70000000.0
         1       245        74     -70000000.0
         1       245        79     -70000000.0
         1       237        87     -70000000.0
         1       244        92     -70000000.0
         1       230        83     -70000000.0
         1       215        80     -70000000.0
         1       221        93     -70000000.0
         1       200        92     -70000000.0
         2       127        57      -3000000.0
         2        89        57      -3000000.0
         2        74        69      -3000000.0
         2       135        86      -3000000.0
