# STR package for  MODFLOW-2005, generated by Flopy.
309 1 0 0 0 86400.0 53 53 
       309         1         1  # stress period 1
1 53 77 1 0 10000.0 1639.1571044921875 17.799999237060547 1628.1571044921875 1638.1571044921875 
1 54 77 1 1 10000.0 1638.1571044921875 17.799999237060547 1627.1571044921875 1637.1571044921875 
1 54 76 1 2 10000.0 1637.1571044921875 17.799999237060547 1626.1571044921875 1636.1571044921875 
1 55 76 1 3 10000.0 1636.1571044921875 17.799999237060547 1625.1571044921875 1635.1571044921875 
1 55 75 1 4 10000.0 1635.1571044921875 17.799999237060547 1624.1571044921875 1634.1571044921875 
1 56 75 1 5 10000.0 1634.1571044921875 17.799999237060547 1623.1571044921875 1633.1571044921875 
1 57 75 1 6 10000.0 1633.1571044921875 17.799999237060547 1622.1571044921875 1632.1571044921875 
1 58 75 1 7 10000.0 1632.1571044921875 17.799999237060547 1621.1571044921875 1631.1571044921875 
1 59 75 1 8 10000.0 1631.1571044921875 17.799999237060547 1620.1571044921875 1630.1571044921875 
1 60 75 1 9 10000.0 1630.1571044921875 17.799999237060547 1619.1571044921875 1629.1571044921875 
1 61 75 1 10 10000.0 1629.1571044921875 17.799999237060547 1618.1571044921875 1628.1571044921875 
1 61 74 1 11 10000.0 1626.701416015625 17.799999237060547 1615.701416015625 1625.701416015625 
1 62 74 1 12 10000.0 1625.776611328125 17.799999237060547 1614.776611328125 1624.776611328125 
1 63 74 1 13 10000.0 1624.4791259765625 17.799999237060547 1613.4791259765625 1623.4791259765625 
1 64 74 1 14 10000.0 1623.7606201171875 17.799999237060547 1612.7606201171875 1622.7606201171875 
1 64 75 1 15 10000.0 1622.280029296875 17.799999237060547 1611.280029296875 1621.280029296875 
1 64 76 1 16 10000.0 1621.6632080078125 17.799999237060547 1610.6632080078125 1620.6632080078125 
1 65 76 1 17 10000.0 1619.5933837890625 17.799999237060547 1608.5933837890625 1618.5933837890625 
1 66 76 1 18 10000.0 1619.2547607421875 17.799999237060547 1608.2547607421875 1618.2547607421875 
1 66 77 1 19 10000.0 1618.0693359375 17.799999237060547 1607.0693359375 1617.0693359375 
1 67 77 1 20 10000.0 1617.3421630859375 17.799999237060547 1606.3421630859375 1616.3421630859375 
1 68 77 1 21 10000.0 1616.5867919921875 17.799999237060547 1605.5867919921875 1615.5867919921875 
1 68 78 1 22 10000.0 1615.5430908203125 17.799999237060547 1604.5430908203125 1614.5430908203125 
1 68 79 1 23 10000.0 1614.020751953125 17.799999237060547 1603.020751953125 1613.020751953125 
1 69 79 1 24 10000.0 1613.021728515625 17.799999237060547 1602.021728515625 1612.021728515625 
1 69 80 1 25 10000.0 1612.0316162109375 17.799999237060547 1601.0316162109375 1611.0316162109375 
1 69 81 1 26 10000.0 1610.5531005859375 17.799999237060547 1599.5531005859375 1609.5531005859375 
1 70 81 1 27 10000.0 1610.140625 17.799999237060547 1599.140625 1609.140625 
1 70 82 1 28 10000.0 1608.8240966796875 17.799999237060547 1597.8240966796875 1607.8240966796875 
1 70 83 1 29 10000.0 1608.30029296875 17.799999237060547 1597.30029296875 1607.30029296875 
1 71 83 1 30 10000.0 1607.7801513671875 17.799999237060547 1596.7801513671875 1606.7801513671875 
1 72 83 1 31 10000.0 1606.763671875 17.799999237060547 1595.763671875 1605.763671875 
1 72 84 1 32 10000.0 1606.2509765625 17.799999237060547 1595.2509765625 1605.2509765625 
1 73 84 1 33 10000.0 1605.241943359375 17.799999237060547 1594.241943359375 1604.241943359375 
1 74 84 1 34 10000.0 1604.7366943359375 17.799999237060547 1593.7366943359375 1603.7366943359375 
1 75 84 1 35 10000.0 1603.735107421875 17.799999237060547 1592.735107421875 1602.735107421875 
1 76 84 1 36 10000.0 1603.2371826171875 17.799999237060547 1592.2371826171875 1602.2371826171875 
1 77 84 1 37 10000.0 1602.2430419921875 17.799999237060547 1591.2430419921875 1601.2430419921875 
1 78 84 1 38 10000.0 1601.7525634765625 17.799999237060547 1590.7525634765625 1600.7525634765625 
1 79 84 1 39 10000.0 1600.765869140625 17.799999237060547 1589.765869140625 1599.765869140625 
1 79 83 1 40 10000.0 1600.2828369140625 17.799999237060547 1589.2828369140625 1599.2828369140625 
1 80 83 1 41 10000.0 1599.3035888671875 17.799999237060547 1588.3035888671875 1598.3035888671875 
1 81 83 1 42 10000.0 1598.8280029296875 17.799999237060547 1587.8280029296875 1597.8280029296875 
1 82 83 1 43 10000.0 1597.8560791015625 17.799999237060547 1586.8560791015625 1596.8560791015625 
1 83 83 1 44 10000.0 1597.387939453125 17.799999237060547 1586.387939453125 1596.387939453125 
1 84 83 1 45 10000.0 1596.4234619140625 17.799999237060547 1585.4234619140625 1595.4234619140625 
1 85 83 1 46 10000.0 1595.9627685546875 17.799999237060547 1584.9627685546875 1594.9627685546875 
1 85 82 1 47 10000.0 1595.0057373046875 17.799999237060547 1584.0057373046875 1594.0057373046875 
1 85 81 1 48 10000.0 1594.552490234375 17.799999237060547 1583.552490234375 1593.552490234375 
1 85 80 1 49 10000.0 1593.6029052734375 17.799999237060547 1582.6029052734375 1592.6029052734375 
1 86 80 1 50 10000.0 1593.156982421875 17.799999237060547 1582.156982421875 1592.156982421875 
1 87 80 1 51 10000.0 1592.21484375 17.799999237060547 1581.21484375 1591.21484375 
1 87 81 1 52 10000.0 1591.7763671875 17.799999237060547 1580.7763671875 1590.7763671875 
1 88 81 1 53 10000.0 1590.8416748046875 17.799999237060547 1579.8416748046875 1589.8416748046875 
1 88 82 1 54 10000.0 1590.41064453125 17.799999237060547 1579.41064453125 1589.41064453125 
1 88 83 1 55 10000.0 1589.4832763671875 17.799999237060547 1578.4832763671875 1588.4832763671875 
1 88 84 1 56 10000.0 1589.0596923828125 17.799999237060547 1578.0596923828125 1588.0596923828125 
1 89 84 1 57 10000.0 1588.1397705078125 17.799999237060547 1577.1397705078125 1587.1397705078125 
1 90 84 1 58 10000.0 1587.7236328125 17.799999237060547 1576.7236328125 1586.7236328125 
1 90 83 1 59 10000.0 1586.8111572265625 17.799999237060547 1575.8111572265625 1585.8111572265625 
1 90 82 1 60 10000.0 1586.4024658203125 17.799999237060547 1575.4024658203125 1585.4024658203125 
1 90 81 1 61 10000.0 1585.4974365234375 17.799999237060547 1574.4974365234375 1584.4974365234375 
1 91 81 1 62 10000.0 1585.0960693359375 17.799999237060547 1574.0960693359375 1584.0960693359375 
1 91 80 1 63 10000.0 1584.198486328125 17.799999237060547 1573.198486328125 1583.198486328125 
1 92 80 1 64 10000.0 1583.8045654296875 17.799999237060547 1572.8045654296875 1582.8045654296875 
1 92 79 1 65 10000.0 1582.9144287109375 17.799999237060547 1571.9144287109375 1581.9144287109375 
1 92 78 1 66 10000.0 1582.5279541015625 17.799999237060547 1571.5279541015625 1581.5279541015625 
1 93 78 1 67 10000.0 1581.645263671875 17.799999237060547 1570.645263671875 1580.645263671875 
1 93 77 1 68 10000.0 1581.2662353515625 17.799999237060547 1570.2662353515625 1580.2662353515625 
1 93 76 1 69 10000.0 1580.890869140625 17.799999237060547 1569.890869140625 1579.890869140625 
1 94 76 1 70 10000.0 1580.519287109375 17.799999237060547 1569.519287109375 1579.519287109375 
1 95 76 1 71 10000.0 1580.1513671875 17.799999237060547 1569.1513671875 1579.1513671875 
1 95 77 1 72 10000.0 1579.2872314453125 17.799999237060547 1568.2872314453125 1578.2872314453125 
1 95 78 1 73 10000.0 1578.9267578125 17.799999237060547 1567.9267578125 1577.9267578125 
1 95 79 1 74 10000.0 1578.0699462890625 17.799999237060547 1567.0699462890625 1577.0699462890625 
1 95 80 1 75 10000.0 1577.7169189453125 17.799999237060547 1566.7169189453125 1576.7169189453125 
1 96 80 1 76 10000.0 1576.86767578125 17.799999237060547 1565.86767578125 1575.86767578125 
1 97 80 1 77 10000.0 1576.52197265625 17.799999237060547 1565.52197265625 1575.52197265625 
1 97 79 1 78 10000.0 1575.6800537109375 17.799999237060547 1564.6800537109375 1574.6800537109375 
1 98 79 1 79 10000.0 1575.163330078125 17.799999237060547 1564.163330078125 1574.163330078125 
1 98 78 1 80 10000.0 1574.5670166015625 17.799999237060547 1563.5670166015625 1573.5670166015625 
1 99 78 1 81 10000.0 1573.974365234375 17.799999237060547 1562.974365234375 1572.974365234375 
1 99 77 1 82 10000.0 1573.3853759765625 17.799999237060547 1562.3853759765625 1572.3853759765625 
1 100 77 1 83 10000.0 1572.8001708984375 17.799999237060547 1561.8001708984375 1571.8001708984375 
1 100 76 1 84 10000.0 1572.2186279296875 17.799999237060547 1561.2186279296875 1571.2186279296875 
1 100 75 1 85 10000.0 1571.6407470703125 17.799999237060547 1560.6407470703125 1570.6407470703125 
1 101 75 1 86 10000.0 1571.0667724609375 17.799999237060547 1560.0667724609375 1570.0667724609375 
1 101 74 1 87 10000.0 1570.496337890625 17.799999237060547 1559.496337890625 1569.496337890625 
1 101 73 1 88 10000.0 1569.9296875 17.799999237060547 1558.9296875 1568.9296875 
1 102 73 1 89 10000.0 1569.36669921875 17.799999237060547 1558.36669921875 1568.36669921875 
1 103 73 1 90 10000.0 1568.8074951171875 17.799999237060547 1557.8074951171875 1567.8074951171875 
1 104 73 1 91 10000.0 1568.251953125 17.799999237060547 1557.251953125 1567.251953125 
1 104 74 1 92 10000.0 1567.7001953125 17.799999237060547 1556.7001953125 1566.7001953125 
1 105 74 1 93 10000.0 1567.152099609375 17.799999237060547 1556.152099609375 1566.152099609375 
1 105 75 1 94 10000.0 1566.607666015625 17.799999237060547 1555.607666015625 1565.607666015625 
1 106 75 1 95 10000.0 1566.0670166015625 17.799999237060547 1555.0670166015625 1565.0670166015625 
1 106 76 1 96 10000.0 1565.530029296875 17.799999237060547 1554.530029296875 1564.530029296875 
1 107 76 1 97 10000.0 1564.996826171875 17.799999237060547 1553.996826171875 1563.996826171875 
1 107 77 1 98 10000.0 1564.46728515625 17.799999237060547 1553.46728515625 1563.46728515625 
1 107 78 1 99 10000.0 1563.94140625 17.799999237060547 1552.94140625 1562.94140625 
1 108 78 1 100 10000.0 1563.4193115234375 17.799999237060547 1552.4193115234375 1562.4193115234375 
1 108 79 1 101 10000.0 1562.90087890625 17.799999237060547 1551.90087890625 1561.90087890625 
1 109 79 1 102 10000.0 1562.38623046875 17.799999237060547 1551.38623046875 1561.38623046875 
1 110 79 1 103 10000.0 1561.875244140625 17.799999237060547 1550.875244140625 1560.875244140625 
1 111 79 1 104 10000.0 1561.3680419921875 17.799999237060547 1550.3680419921875 1560.3680419921875 
1 112 79 1 105 10000.0 1560.864501953125 17.799999237060547 1549.864501953125 1559.864501953125 
1 113 79 1 106 10000.0 1560.36474609375 17.799999237060547 1549.36474609375 1559.36474609375 
1 114 79 1 107 10000.0 1559.8685302734375 17.799999237060547 1548.8685302734375 1558.8685302734375 
1 114 80 1 108 10000.0 1559.376220703125 17.799999237060547 1548.376220703125 1558.376220703125 
1 115 80 1 109 10000.0 1558.887451171875 17.799999237060547 1547.887451171875 1557.887451171875 
1 116 80 1 110 10000.0 1558.402587890625 17.799999237060547 1547.402587890625 1557.402587890625 
1 116 79 1 111 10000.0 1557.9212646484375 17.799999237060547 1546.9212646484375 1556.9212646484375 
1 117 79 1 112 10000.0 1557.4437255859375 17.799999237060547 1546.4437255859375 1556.4437255859375 
1 118 79 1 113 10000.0 1556.969970703125 17.799999237060547 1545.969970703125 1555.969970703125 
1 119 79 1 114 10000.0 1556.499755859375 17.799999237060547 1545.499755859375 1555.499755859375 
1 120 79 1 115 10000.0 1556.033447265625 17.799999237060547 1545.033447265625 1555.033447265625 
1 120 78 1 116 10000.0 1555.5706787109375 17.799999237060547 1544.5706787109375 1554.5706787109375 
1 121 78 1 117 10000.0 1555.1116943359375 17.799999237060547 1544.1116943359375 1554.1116943359375 
1 122 78 1 118 10000.0 1554.656494140625 17.799999237060547 1543.656494140625 1553.656494140625 
1 123 78 1 119 10000.0 1554.2049560546875 17.799999237060547 1543.2049560546875 1553.2049560546875 
1 123 77 1 120 10000.0 1553.757080078125 17.799999237060547 1542.757080078125 1552.757080078125 
1 124 77 1 121 10000.0 1553.31298828125 17.799999237060547 1542.31298828125 1552.31298828125 
1 125 77 1 122 10000.0 1552.87255859375 17.799999237060547 1541.87255859375 1551.87255859375 
1 126 77 1 123 10000.0 1552.4359130859375 17.799999237060547 1541.4359130859375 1551.4359130859375 
1 127 77 1 124 10000.0 1552.0029296875 17.799999237060547 1541.0029296875 1551.0029296875 
1 127 78 1 125 10000.0 1551.5736083984375 17.799999237060547 1540.5736083984375 1550.5736083984375 
1 128 78 1 126 10000.0 1551.1480712890625 17.799999237060547 1540.1480712890625 1550.1480712890625 
1 129 78 1 127 10000.0 1550.726318359375 17.799999237060547 1539.726318359375 1549.726318359375 
1 130 78 1 128 10000.0 1550.30810546875 17.799999237060547 1539.30810546875 1549.30810546875 
1 131 78 1 129 10000.0 1549.8936767578125 17.799999237060547 1538.8936767578125 1548.8936767578125 
1 132 78 1 130 10000.0 1549.4830322265625 17.799999237060547 1538.4830322265625 1548.4830322265625 
1 133 78 1 131 10000.0 1549.0760498046875 17.799999237060547 1538.0760498046875 1548.0760498046875 
1 133 77 1 132 10000.0 1548.6727294921875 17.799999237060547 1537.6727294921875 1547.6727294921875 
1 134 77 1 133 10000.0 1548.273193359375 17.799999237060547 1537.273193359375 1547.273193359375 
1 134 76 1 134 10000.0 1547.87744140625 17.799999237060547 1536.87744140625 1546.87744140625 
1 135 76 1 135 10000.0 1547.4852294921875 17.799999237060547 1536.4852294921875 1546.4852294921875 
1 136 76 1 136 10000.0 1547.0968017578125 17.799999237060547 1536.0968017578125 1546.0968017578125 
1 137 76 1 137 10000.0 1546.712158203125 17.799999237060547 1535.712158203125 1545.712158203125 
1 138 76 1 138 10000.0 1546.3311767578125 17.799999237060547 1535.3311767578125 1545.3311767578125 
1 138 77 1 139 10000.0 1545.953857421875 17.799999237060547 1534.953857421875 1544.953857421875 
1 139 77 1 140 10000.0 1545.3521728515625 17.799999237060547 1534.3521728515625 1544.3521728515625 
1 140 77 1 141 10000.0 1544.7542724609375 17.799999237060547 1533.7542724609375 1543.7542724609375 
1 140 78 1 142 10000.0 1544.1790771484375 17.799999237060547 1533.1790771484375 1543.1790771484375 
1 141 78 1 143 10000.0 1543.6065673828125 17.799999237060547 1532.6065673828125 1542.6065673828125 
1 142 78 1 144 10000.0 1543.0367431640625 17.799999237060547 1532.0367431640625 1542.0367431640625 
1 143 78 1 145 10000.0 1542.4696044921875 17.799999237060547 1531.4696044921875 1541.4696044921875 
1 143 77 1 146 10000.0 1541.904296875 17.799999237060547 1530.904296875 1540.904296875 
1 143 76 1 147 10000.0 1541.340576171875 17.799999237060547 1530.340576171875 1540.340576171875 
1 144 76 1 148 10000.0 1540.7786865234375 17.799999237060547 1529.7786865234375 1539.7786865234375 
1 144 75 1 149 10000.0 1540.200439453125 17.799999237060547 1529.200439453125 1539.200439453125 
1 145 75 1 150 10000.0 1539.82275390625 17.799999237060547 1528.82275390625 1538.82275390625 
1 146 75 1 151 10000.0 1539.3519287109375 17.799999237060547 1528.3519287109375 1538.3519287109375 
1 147 75 1 152 10000.0 1538.8848876953125 17.799999237060547 1527.8848876953125 1537.8848876953125 
1 148 75 1 153 10000.0 1538.4215087890625 17.799999237060547 1527.4215087890625 1537.4215087890625 
1 149 75 1 154 10000.0 1537.9617919921875 17.799999237060547 1526.9617919921875 1536.9617919921875 
1 149 76 1 155 10000.0 1537.505859375 17.799999237060547 1526.505859375 1536.505859375 
1 150 76 1 156 10000.0 1537.0535888671875 17.799999237060547 1526.0535888671875 1536.0535888671875 
1 151 76 1 157 10000.0 1536.6051025390625 17.799999237060547 1525.6051025390625 1535.6051025390625 
1 151 77 1 158 10000.0 1536.1602783203125 17.799999237060547 1525.1602783203125 1535.1602783203125 
1 152 77 1 159 10000.0 1535.71923828125 17.799999237060547 1524.71923828125 1534.71923828125 
1 153 77 1 160 10000.0 1535.2818603515625 17.799999237060547 1524.2818603515625 1534.2818603515625 
1 154 77 1 161 10000.0 1534.84814453125 17.799999237060547 1523.84814453125 1533.84814453125 
1 155 77 1 162 10000.0 1534.418212890625 17.799999237060547 1523.418212890625 1533.418212890625 
1 156 78 1 163 10000.0 1533.991943359375 17.799999237060547 1522.991943359375 1532.991943359375 
1 157 78 1 164 10000.0 1533.5694580078125 17.799999237060547 1522.5694580078125 1532.5694580078125 
1 157 79 1 165 10000.0 1533.150634765625 17.799999237060547 1522.150634765625 1532.150634765625 
1 158 79 1 166 10000.0 1532.83544921875 17.799999237060547 1521.83544921875 1531.83544921875 
1 159 79 1 167 10000.0 1532.524169921875 17.799999237060547 1521.524169921875 1531.524169921875 
1 159 80 1 168 10000.0 1532.2164306640625 17.799999237060547 1521.2164306640625 1531.2164306640625 
1 160 80 1 169 10000.0 1531.9124755859375 17.799999237060547 1520.9124755859375 1530.9124755859375 
1 161 80 1 170 10000.0 1531.6121826171875 17.799999237060547 1520.6121826171875 1530.6121826171875 
1 162 80 1 171 10000.0 1531.315673828125 17.799999237060547 1520.315673828125 1530.315673828125 
1 163 80 1 172 10000.0 1531.0228271484375 17.799999237060547 1520.0228271484375 1530.0228271484375 
1 164 80 1 173 10000.0 1530.7337646484375 17.799999237060547 1519.7337646484375 1529.7337646484375 
1 165 80 1 174 10000.0 1530.4483642578125 17.799999237060547 1519.4483642578125 1529.4483642578125 
1 165 79 1 175 10000.0 1530.166748046875 17.799999237060547 1519.166748046875 1529.166748046875 
1 165 78 1 176 10000.0 1529.888671875 17.799999237060547 1518.888671875 1528.888671875 
1 165 77 1 177 10000.0 1529.614501953125 17.799999237060547 1518.614501953125 1528.614501953125 
1 165 76 1 178 10000.0 1529.343994140625 17.799999237060547 1518.343994140625 1528.343994140625 
1 165 75 1 179 10000.0 1529.0771484375 17.799999237060547 1518.0771484375 1528.0771484375 
1 166 75 1 180 10000.0 1528.81396484375 17.799999237060547 1517.81396484375 1527.81396484375 
1 167 75 1 181 10000.0 1528.5545654296875 17.799999237060547 1517.5545654296875 1527.5545654296875 
1 167 76 1 182 10000.0 1528.2989501953125 17.799999237060547 1517.2989501953125 1527.2989501953125 
1 167 77 1 183 10000.0 1528.0469970703125 17.799999237060547 1517.0469970703125 1527.0469970703125 
1 168 77 1 184 10000.0 1527.7987060546875 17.799999237060547 1516.7987060546875 1526.7987060546875 
1 169 77 1 185 10000.0 1527.5540771484375 17.799999237060547 1516.5540771484375 1526.5540771484375 
1 169 76 1 186 10000.0 1527.11328125 17.799999237060547 1516.11328125 1526.11328125 
1 169 75 1 187 10000.0 1526.6761474609375 17.799999237060547 1515.6761474609375 1525.6761474609375 
1 170 75 1 188 10000.0 1526.2427978515625 17.799999237060547 1515.2427978515625 1525.2427978515625 
1 171 75 1 189 10000.0 1525.8131103515625 17.799999237060547 1514.8131103515625 1524.8131103515625 
1 172 75 1 190 10000.0 1525.3870849609375 17.799999237060547 1514.3870849609375 1524.3870849609375 
1 173 75 1 191 10000.0 1524.96484375 17.799999237060547 1513.96484375 1523.96484375 
1 173 74 1 192 10000.0 1524.5462646484375 17.799999237060547 1513.5462646484375 1523.5462646484375 
1 173 73 1 193 10000.0 1524.1314697265625 17.799999237060547 1513.1314697265625 1523.1314697265625 
1 174 73 1 194 10000.0 1523.7203369140625 17.799999237060547 1512.7203369140625 1522.7203369140625 
1 175 73 1 195 10000.0 1523.31298828125 17.799999237060547 1512.31298828125 1522.31298828125 
1 176 73 1 196 10000.0 1522.9093017578125 17.799999237060547 1511.9093017578125 1521.9093017578125 
1 176 72 1 197 10000.0 1522.50927734375 17.799999237060547 1511.50927734375 1521.50927734375 
1 177 72 1 198 10000.0 1522.113037109375 17.799999237060547 1511.113037109375 1521.113037109375 
1 178 72 1 199 10000.0 1521.720458984375 17.799999237060547 1510.720458984375 1520.720458984375 
1 179 72 1 200 10000.0 1521.33154296875 17.799999237060547 1510.33154296875 1520.33154296875 
1 179 71 1 201 10000.0 1520.946533203125 17.799999237060547 1509.946533203125 1519.946533203125 
1 180 71 1 202 10000.0 1520.5650634765625 17.799999237060547 1509.5650634765625 1519.5650634765625 
1 181 71 1 203 10000.0 1520.1873779296875 17.799999237060547 1509.1873779296875 1519.1873779296875 
1 182 71 1 204 10000.0 1519.8133544921875 17.799999237060547 1508.8133544921875 1518.8133544921875 
1 182 70 1 205 10000.0 1519.443115234375 17.799999237060547 1508.443115234375 1518.443115234375 
1 183 70 1 206 10000.0 1519.0765380859375 17.799999237060547 1508.0765380859375 1518.0765380859375 
1 184 70 1 207 10000.0 1518.7137451171875 17.799999237060547 1507.7137451171875 1517.7137451171875 
1 184 71 1 208 10000.0 1518.3546142578125 17.799999237060547 1507.3546142578125 1517.3546142578125 
1 185 71 1 209 10000.0 1517.9991455078125 17.799999237060547 1506.9991455078125 1516.9991455078125 
1 186 71 1 210 10000.0 1517.847412109375 17.799999237060547 1506.847412109375 1516.847412109375 
1 186 70 1 211 10000.0 1517.699462890625 17.799999237060547 1506.699462890625 1516.699462890625 
1 186 69 1 212 10000.0 1517.55517578125 17.799999237060547 1506.55517578125 1516.55517578125 
1 187 69 1 213 10000.0 1517.41455078125 17.799999237060547 1506.41455078125 1516.41455078125 
1 188 69 1 214 10000.0 1517.2777099609375 17.799999237060547 1506.2777099609375 1516.2777099609375 
1 189 69 1 215 10000.0 1516.944580078125 17.799999237060547 1505.944580078125 1515.944580078125 
1 190 69 1 216 10000.0 1516.815185546875 17.799999237060547 1505.815185546875 1515.815185546875 
1 191 69 1 217 10000.0 1516.489501953125 17.799999237060547 1505.489501953125 1515.489501953125 
1 191 68 1 218 10000.0 1516.16748046875 17.799999237060547 1505.16748046875 1515.16748046875 
1 192 68 1 219 10000.0 1515.8492431640625 17.799999237060547 1504.8492431640625 1514.8492431640625 
1 192 67 1 220 10000.0 1515.53466796875 17.799999237060547 1504.53466796875 1514.53466796875 
1 193 67 1 221 10000.0 1515.2237548828125 17.799999237060547 1504.2237548828125 1514.2237548828125 
1 194 67 1 222 10000.0 1514.9166259765625 17.799999237060547 1503.9166259765625 1513.9166259765625 
1 195 67 1 223 10000.0 1514.813232421875 17.799999237060547 1503.813232421875 1513.813232421875 
1 195 66 1 224 10000.0 1514.7135009765625 17.799999237060547 1503.7135009765625 1513.7135009765625 
1 196 66 1 225 10000.0 1514.41748046875 17.799999237060547 1503.41748046875 1513.41748046875 
1 197 66 1 226 10000.0 1514.125244140625 17.799999237060547 1503.125244140625 1513.125244140625 
1 198 66 1 227 10000.0 1514.03662109375 17.799999237060547 1503.03662109375 1513.03662109375 
1 198 65 1 228 10000.0 1513.7518310546875 17.799999237060547 1502.7518310546875 1512.7518310546875 
1 199 65 1 229 10000.0 1513.4705810546875 17.799999237060547 1502.4705810546875 1512.4705810546875 
1 200 65 1 230 10000.0 1513.1932373046875 17.799999237060547 1502.1932373046875 1512.1932373046875 
1 200 64 1 231 10000.0 1512.91943359375 17.799999237060547 1501.91943359375 1511.91943359375 
1 201 64 1 232 10000.0 1512.8494873046875 17.799999237060547 1501.8494873046875 1511.8494873046875 
1 201 63 1 233 10000.0 1512.5831298828125 17.799999237060547 1501.5831298828125 1511.5831298828125 
1 202 63 1 234 10000.0 1512.5206298828125 17.799999237060547 1501.5206298828125 1511.5206298828125 
1 203 63 1 235 10000.0 1512.26171875 17.799999237060547 1501.26171875 1511.26171875 
1 203 62 1 236 10000.0 1512.006591796875 17.799999237060547 1501.006591796875 1511.006591796875 
1 204 62 1 237 10000.0 1511.955078125 17.799999237060547 1500.955078125 1510.955078125 
1 205 62 1 238 10000.0 1511.7073974609375 17.799999237060547 1500.7073974609375 1510.7073974609375 
1 206 62 1 239 10000.0 1511.46337890625 17.799999237060547 1500.46337890625 1510.46337890625 
1 207 62 1 240 10000.0 1511.22314453125 17.799999237060547 1500.22314453125 1510.22314453125 
1 208 62 1 241 10000.0 1510.986572265625 17.799999237060547 1499.986572265625 1509.986572265625 
1 209 62 1 242 10000.0 1510.753662109375 17.799999237060547 1499.753662109375 1509.753662109375 
1 209 61 1 243 10000.0 1510.5245361328125 17.799999237060547 1499.5245361328125 1509.5245361328125 
1 210 61 1 244 10000.0 1510.299072265625 17.799999237060547 1499.299072265625 1509.299072265625 
1 211 61 1 245 10000.0 1510.0772705078125 17.799999237060547 1499.0772705078125 1509.0772705078125 
1 211 62 1 246 10000.0 1509.8592529296875 17.799999237060547 1498.8592529296875 1508.8592529296875 
1 212 62 1 247 10000.0 1509.64501953125 17.799999237060547 1498.64501953125 1508.64501953125 
1 213 62 1 248 10000.0 1509.4344482421875 17.799999237060547 1498.4344482421875 1508.4344482421875 
1 214 62 1 249 10000.0 1509.2275390625 17.799999237060547 1498.2275390625 1508.2275390625 
1 214 61 1 250 10000.0 1509.0244140625 17.799999237060547 1498.0244140625 1508.0244140625 
1 215 61 1 251 10000.0 1508.824951171875 17.799999237060547 1497.824951171875 1507.824951171875 
1 216 61 1 252 10000.0 1508.629150390625 17.799999237060547 1497.629150390625 1507.629150390625 
1 217 61 1 253 10000.0 1508.4371337890625 17.799999237060547 1497.4371337890625 1507.4371337890625 
1 218 61 1 254 10000.0 1508.2489013671875 17.799999237060547 1497.2489013671875 1507.2489013671875 
1 218 62 1 255 10000.0 1508.064208984375 17.799999237060547 1497.064208984375 1507.064208984375 
1 219 62 1 256 10000.0 1507.8834228515625 17.799999237060547 1496.8834228515625 1506.8834228515625 
1 220 62 1 257 10000.0 1507.7061767578125 17.799999237060547 1496.7061767578125 1506.7061767578125 
1 220 63 1 258 10000.0 1507.53271484375 17.799999237060547 1496.53271484375 1506.53271484375 
1 220 64 1 259 10000.0 1507.363037109375 17.799999237060547 1496.363037109375 1506.363037109375 
1 221 64 1 260 10000.0 1507.197021484375 17.799999237060547 1496.197021484375 1506.197021484375 
1 221 65 1 261 10000.0 1507.03466796875 17.799999237060547 1496.03466796875 1506.03466796875 
1 222 65 1 262 10000.0 1506.8760986328125 17.799999237060547 1495.8760986328125 1505.8760986328125 
1 223 65 1 263 10000.0 1506.72119140625 17.799999237060547 1495.72119140625 1505.72119140625 
1 223 64 1 264 10000.0 1506.570068359375 17.799999237060547 1495.570068359375 1505.570068359375 
1 224 64 1 265 10000.0 1506.422607421875 17.799999237060547 1495.422607421875 1505.422607421875 
1 225 64 1 266 10000.0 1506.27880859375 17.799999237060547 1495.27880859375 1505.27880859375 
1 225 65 1 267 10000.0 1506.1387939453125 17.799999237060547 1495.1387939453125 1505.1387939453125 
1 226 65 1 268 10000.0 1506.00244140625 17.799999237060547 1495.00244140625 1505.00244140625 
1 227 65 1 269 10000.0 1505.869873046875 17.799999237060547 1494.869873046875 1504.869873046875 
1 227 64 1 270 10000.0 1505.740966796875 17.799999237060547 1494.740966796875 1504.740966796875 
1 227 63 1 271 10000.0 1505.6158447265625 17.799999237060547 1494.6158447265625 1504.6158447265625 
1 228 63 1 272 10000.0 1505.494384765625 17.799999237060547 1494.494384765625 1504.494384765625 
1 229 63 1 273 10000.0 1505.3765869140625 17.799999237060547 1494.3765869140625 1504.3765869140625 
1 229 64 1 274 10000.0 1505.2625732421875 17.799999237060547 1494.2625732421875 1504.2625732421875 
1 230 64 1 275 10000.0 1505.1522216796875 17.799999237060547 1494.1522216796875 1504.1522216796875 
1 230 65 1 276 10000.0 1505.045654296875 17.799999237060547 1494.045654296875 1504.045654296875 
1 231 65 1 277 10000.0 1504.9427490234375 17.799999237060547 1493.9427490234375 1503.9427490234375 
1 232 65 1 278 10000.0 1504.843505859375 17.799999237060547 1493.843505859375 1503.843505859375 
1 233 65 1 279 10000.0 1504.748046875 17.799999237060547 1493.748046875 1503.748046875 
1 234 65 1 280 10000.0 1504.6563720703125 17.799999237060547 1493.6563720703125 1503.6563720703125 
1 235 65 1 281 10000.0 1504.5682373046875 17.799999237060547 1493.5682373046875 1503.5682373046875 
1 236 65 1 282 10000.0 1504.4840087890625 17.799999237060547 1493.4840087890625 1503.4840087890625 
1 236 66 1 283 10000.0 1504.4033203125 17.799999237060547 1493.4033203125 1503.4033203125 
1 237 66 1 284 10000.0 1504.326416015625 17.799999237060547 1493.326416015625 1503.326416015625 
1 237 67 1 285 10000.0 1504.2532958984375 17.799999237060547 1493.2532958984375 1503.2532958984375 
1 237 68 1 286 10000.0 1504.183837890625 17.799999237060547 1493.183837890625 1503.183837890625 
1 237 69 1 287 10000.0 1504.1180419921875 17.799999237060547 1493.1180419921875 1503.1180419921875 
1 238 69 1 288 10000.0 1504.0560302734375 17.799999237060547 1493.0560302734375 1503.0560302734375 
1 239 69 1 289 10000.0 1503.797607421875 17.799999237060547 1492.797607421875 1502.797607421875 
1 239 68 1 290 10000.0 1503.7430419921875 17.799999237060547 1492.7430419921875 1502.7430419921875 
1 240 68 1 291 10000.0 1503.692138671875 17.799999237060547 1492.692138671875 1502.692138671875 
1 241 68 1 292 10000.0 1503.6448974609375 17.799999237060547 1492.6448974609375 1502.6448974609375 
1 242 68 1 293 10000.0 1503.6014404296875 17.799999237060547 1492.6014404296875 1502.6014404296875 
1 243 68 1 294 10000.0 1503.5616455078125 17.799999237060547 1492.5616455078125 1502.5616455078125 
1 244 68 1 295 10000.0 1503.525634765625 17.799999237060547 1492.525634765625 1502.525634765625 
1 244 69 1 296 10000.0 1503.4932861328125 17.799999237060547 1492.4932861328125 1502.4932861328125 
1 245 69 1 297 10000.0 1503.4647216796875 17.799999237060547 1492.4647216796875 1502.4647216796875 
1 245 70 1 298 10000.0 1503.4398193359375 17.799999237060547 1492.4398193359375 1502.4398193359375 
1 246 70 1 299 10000.0 1503.4185791015625 17.799999237060547 1492.4185791015625 1502.4185791015625 
1 247 70 1 300 10000.0 1503.401123046875 17.799999237060547 1492.401123046875 1502.401123046875 
1 247 69 1 301 10000.0 1503.3873291015625 17.799999237060547 1492.3873291015625 1502.3873291015625 
1 247 68 1 302 10000.0 1503.3773193359375 17.799999237060547 1492.3773193359375 1502.3773193359375 
1 247 67 1 303 10000.0 1503.3709716796875 17.799999237060547 1492.3709716796875 1502.3709716796875 
1 248 67 1 304 10000.0 1503.3682861328125 17.799999237060547 1492.3682861328125 1502.3682861328125 
1 248 66 1 305 10000.0 1503.369384765625 17.799999237060547 1492.369384765625 1502.369384765625 
1 249 66 1 306 10000.0 1503.3741455078125 17.799999237060547 1492.3741455078125 1502.3741455078125 
1 250 66 1 307 10000.0 1503.3826904296875 17.799999237060547 1492.3826904296875 1502.3826904296875 