# WEL package for  MODFLOW-2005, generated by Flopy.
        20         0 
        20         0 # stress period 1
         1        63        94       -390000.0
         1        74        69       -390000.0
         1        87        47      -2000000.0
         1        97        61       -390000.0
         1       105        89       -390000.0
         1       127        57       -390000.0
         2       143        83      -1100000.0
         2       145        89      -1100000.0
         2       149        85      -1100000.0
         1       155        59      -2400000.0
         1       165        37       -390000.0
         1       172        55      -2400000.0
         1       185        86      -2400000.0
         1       200        92      -2400000.0
         1       201        51       -390000.0
         1       201        79       -390000.0
         1       216        45      -2400000.0
         1       221        93      -2400000.0
         1       227        77      -2400000.0
         1       244        92      -2400000.0
