# Name file for MODPATH, generated by Flopy version 3.3.4.
MPBAS  86 evapotranspiration_mp.mpbas
DIS  11 evapotranspiration.dis
HEAD  88 evapotranspiration.hds
BUDGET  89 evapotranspiration.cbc
