# STR package for  MODFLOW-2005, generated by Flopy.
44 1 0 0 0 86400.0 53 53 
        44         1         1  # stress period 1
1 26 6 1 0 0.0 94.5 500.0 93.0 94.0 
1 26 7 1 1 0.0 93.5 500.0 92.0 93.0 
1 26 8 1 2 0.0 92.5 500.0 91.0 92.0 
1 26 9 1 3 0.0 91.5 500.0 90.0 91.0 
1 26 10 1 4 0.0 90.5 500.0 89.0 90.0 
1 26 11 1 5 0.0 89.5 500.0 88.0 89.0 
1 26 12 1 6 0.0 88.5 500.0 87.0 88.0 
1 26 13 1 7 0.0 87.5 500.0 86.0 87.0 
1 26 14 1 8 0.0 86.5 500.0 85.0 86.0 
1 26 15 1 9 0.0 85.5 500.0 84.0 85.0 
1 26 16 1 10 0.0 84.5 500.0 83.0 84.0 
1 26 17 1 11 0.0 83.5 500.0 82.0 83.0 
1 26 18 1 12 0.0 82.5 500.0 81.0 82.0 
1 26 19 1 13 0.0 81.5 500.0 80.0 81.0 
1 26 20 1 14 0.0 80.5 500.0 79.0 80.0 
1 26 21 1 15 0.0 79.5 500.0 78.0 79.0 
1 26 22 1 16 0.0 78.5 500.0 77.0 78.0 
1 26 23 1 17 0.0 77.5 500.0 76.0 77.0 
1 26 24 1 18 0.0 76.5 500.0 75.0 76.0 
1 26 25 1 19 0.0 75.5 500.0 74.0 75.0 
1 26 26 1 20 0.0 75.4000015258789 500.0 73.9000015258789 74.9000015258789 
1 26 27 1 21 0.0 75.30000305175781 500.0 73.80000305175781 74.80000305175781 
1 26 28 1 22 0.0 75.19999694824219 500.0 73.69999694824219 74.69999694824219 
1 26 29 1 23 0.0 75.0999984741211 500.0 73.5999984741211 74.5999984741211 
1 26 30 1 24 0.0 75.0 500.0 73.5 74.5 
1 26 31 1 25 0.0 74.9000015258789 500.0 73.4000015258789 74.4000015258789 
1 26 32 1 26 0.0 74.80000305175781 500.0 73.30000305175781 74.30000305175781 
1 26 33 1 27 0.0 74.69999694824219 500.0 73.19999694824219 74.19999694824219 
1 26 34 1 28 0.0 74.5999984741211 500.0 73.0999984741211 74.0999984741211 
1 26 35 1 29 0.0 74.5 500.0 73.0 74.0 
1 26 36 1 30 0.0 74.4000015258789 500.0 72.9000015258789 73.9000015258789 
1 26 37 1 31 0.0 74.30000305175781 500.0 72.80000305175781 73.80000305175781 
1 26 38 1 32 0.0 74.19999694824219 500.0 72.69999694824219 73.69999694824219 
1 26 39 1 33 0.0 74.0999984741211 500.0 72.5999984741211 73.5999984741211 
1 26 40 1 34 0.0 74.0 500.0 72.5 73.5 
1 26 41 1 35 0.0 73.9000015258789 500.0 72.4000015258789 73.4000015258789 
1 26 42 1 36 0.0 73.80000305175781 500.0 72.30000305175781 73.30000305175781 
1 26 43 1 37 0.0 73.69999694824219 500.0 72.19999694824219 73.19999694824219 
1 26 44 1 38 0.0 73.5999984741211 500.0 72.0999984741211 73.0999984741211 
1 26 45 1 39 0.0 73.5 500.0 72.0 73.0 
1 26 46 1 40 0.0 73.4000015258789 500.0 71.9000015258789 72.9000015258789 
1 26 47 1 41 0.0 73.30000305175781 500.0 71.80000305175781 72.80000305175781 
1 26 48 1 42 0.0 73.19999694824219 500.0 71.69999694824219 72.69999694824219 
1 26 49 1 43 0.0 73.0999984741211 500.0 71.5999984741211 72.5999984741211 
