# STR package for  MODFLOW-2005, generated by Flopy.
44 1 0 0 0 86400.0 53 53 
        44         1         1  # stress period 1
1 13 6 1 0 0.0 107.5 1000.0 106.0 107.0 
1 13 7 1 1 0.0 106.5 1000.0 105.0 106.0 
1 13 8 1 2 0.0 105.5 1000.0 104.0 105.0 
1 13 9 1 3 0.0 104.5 1000.0 103.0 104.0 
1 13 10 1 4 0.0 103.5 1000.0 102.0 103.0 
1 13 11 1 5 0.0 102.5 1000.0 101.0 102.0 
1 13 12 1 6 0.0 101.5 1000.0 100.0 101.0 
1 13 13 1 7 0.0 100.5 1000.0 99.0 100.0 
1 13 14 1 8 0.0 99.5 1000.0 98.0 99.0 
1 13 15 1 9 0.0 98.5 1000.0 97.0 98.0 
1 13 16 1 10 0.0 97.5 1000.0 96.0 97.0 
1 13 17 1 11 0.0 96.5 1000.0 95.0 96.0 
1 13 18 1 12 0.0 95.5 1000.0 94.0 95.0 
1 13 19 1 13 0.0 94.5 1000.0 93.0 94.0 
1 13 20 1 14 0.0 93.5 1000.0 92.0 93.0 
1 13 21 1 15 0.0 92.5 1000.0 91.0 92.0 
1 13 22 1 16 0.0 91.5 1000.0 90.0 91.0 
1 13 23 1 17 0.0 90.5 1000.0 89.0 90.0 
1 13 24 1 18 0.0 89.5 1000.0 88.0 89.0 
1 13 25 1 19 0.0 88.5 1000.0 87.0 88.0 
1 13 26 1 20 0.0 88.4000015258789 1000.0 86.9000015258789 87.9000015258789 
1 13 27 1 21 0.0 88.30000305175781 1000.0 86.80000305175781 87.80000305175781 
1 13 28 1 22 0.0 88.19999694824219 1000.0 86.69999694824219 87.69999694824219 
1 13 29 1 23 0.0 88.0999984741211 1000.0 86.5999984741211 87.5999984741211 
1 13 30 1 24 0.0 88.0 1000.0 86.5 87.5 
1 13 31 1 25 0.0 87.9000015258789 1000.0 86.4000015258789 87.4000015258789 
1 13 32 1 26 0.0 87.80000305175781 1000.0 86.30000305175781 87.30000305175781 
1 13 33 1 27 0.0 87.69999694824219 1000.0 86.19999694824219 87.19999694824219 
1 13 34 1 28 0.0 87.5999984741211 1000.0 86.0999984741211 87.0999984741211 
1 13 35 1 29 0.0 87.5 1000.0 86.0 87.0 
1 13 36 1 30 0.0 87.4000015258789 1000.0 85.9000015258789 86.9000015258789 
1 13 37 1 31 0.0 87.30000305175781 1000.0 85.80000305175781 86.80000305175781 
1 13 38 1 32 0.0 87.19999694824219 1000.0 85.69999694824219 86.69999694824219 
1 13 39 1 33 0.0 87.0999984741211 1000.0 85.5999984741211 86.5999984741211 
1 13 40 1 34 0.0 87.0 1000.0 85.5 86.5 
1 13 41 1 35 0.0 86.9000015258789 1000.0 85.4000015258789 86.4000015258789 
1 13 42 1 36 0.0 86.80000305175781 1000.0 85.30000305175781 86.30000305175781 
1 13 43 1 37 0.0 86.69999694824219 1000.0 85.19999694824219 86.19999694824219 
1 13 44 1 38 0.0 86.5999984741211 1000.0 85.0999984741211 86.0999984741211 
1 13 45 1 39 0.0 86.5 1000.0 85.0 86.0 
1 13 46 1 40 0.0 86.4000015258789 1000.0 84.9000015258789 85.9000015258789 
1 13 47 1 41 0.0 86.30000305175781 1000.0 84.80000305175781 85.80000305175781 
1 13 48 1 42 0.0 86.19999694824219 1000.0 84.69999694824219 85.69999694824219 
1 13 49 1 43 0.0 86.0999984741211 1000.0 84.5999984741211 85.5999984741211 
