# WEL package for  MODFLOW-2005, generated by Flopy.
         1         0 
         1         0 # stress period 1
         1        33        23        -12500.0
