# Name file for MODFLOW-2005, generated by Flopy version 3.3.4.
#xll:0.0; yll:0.0; rotation:0.0; units:meters; lenuni:2; start_datetime:1-1-1970
LIST               2  stream.list
DIS               11  stream.dis
BAS6              13  stream.bas
LPF               15  stream.lpf
OC                14  stream.oc
PCG               27  stream.pcg
RCH               19  stream.rch
STR              118  stream.str
DATA(BINARY)      53  stream.cbc REPLACE
DATA(BINARY)      51  stream.hds REPLACE
