# STR package for  MODFLOW-2005, generated by Flopy.
44 1 0 0 0 86400.0 53 53 
        44         1         1  # stress period 1
1 26 6 1 0 4000.0 94.5 400.0 93.0 94.0 
1 26 7 1 1 4000.0 93.5 400.0 92.0 93.0 
1 26 8 1 2 4000.0 92.5 400.0 91.0 92.0 
1 26 9 1 3 4000.0 91.5 400.0 90.0 91.0 
1 26 10 1 4 4000.0 90.5 400.0 89.0 90.0 
1 26 11 1 5 4000.0 89.5 400.0 88.0 89.0 
1 26 12 1 6 4000.0 88.5 400.0 87.0 88.0 
1 26 13 1 7 4000.0 87.5 400.0 86.0 87.0 
1 26 14 1 8 4000.0 86.5 400.0 85.0 86.0 
1 26 15 1 9 4000.0 85.5 400.0 84.0 85.0 
1 26 16 1 10 4000.0 84.5 400.0 83.0 84.0 
1 26 17 1 11 4000.0 83.5 400.0 82.0 83.0 
1 26 18 1 12 4000.0 82.5 400.0 81.0 82.0 
1 26 19 1 13 4000.0 81.5 400.0 80.0 81.0 
1 26 20 1 14 4000.0 80.5 400.0 79.0 80.0 
1 26 21 1 15 4000.0 79.5 400.0 78.0 79.0 
1 26 22 1 16 4000.0 78.5 400.0 77.0 78.0 
1 26 23 1 17 4000.0 77.5 400.0 76.0 77.0 
1 26 24 1 18 4000.0 76.5 400.0 75.0 76.0 
1 26 25 1 19 4000.0 75.5 400.0 74.0 75.0 
1 26 26 1 20 4000.0 75.4000015258789 400.0 73.9000015258789 74.9000015258789 
1 26 27 1 21 4000.0 75.30000305175781 400.0 73.80000305175781 74.80000305175781 
1 26 28 1 22 4000.0 75.19999694824219 400.0 73.69999694824219 74.69999694824219 
1 26 29 1 23 4000.0 75.0999984741211 400.0 73.5999984741211 74.5999984741211 
1 26 30 1 24 4000.0 75.0 400.0 73.5 74.5 
1 26 31 1 25 4000.0 74.9000015258789 400.0 73.4000015258789 74.4000015258789 
1 26 32 1 26 4000.0 74.80000305175781 400.0 73.30000305175781 74.30000305175781 
1 26 33 1 27 4000.0 74.69999694824219 400.0 73.19999694824219 74.19999694824219 
1 26 34 1 28 4000.0 74.5999984741211 400.0 73.0999984741211 74.0999984741211 
1 26 35 1 29 4000.0 74.5 400.0 73.0 74.0 
1 26 36 1 30 4000.0 74.4000015258789 400.0 72.9000015258789 73.9000015258789 
1 26 37 1 31 4000.0 74.30000305175781 400.0 72.80000305175781 73.80000305175781 
1 26 38 1 32 4000.0 74.19999694824219 400.0 72.69999694824219 73.69999694824219 
1 26 39 1 33 4000.0 74.0999984741211 400.0 72.5999984741211 73.5999984741211 
1 26 40 1 34 4000.0 74.0 400.0 72.5 73.5 
1 26 41 1 35 4000.0 73.9000015258789 400.0 72.4000015258789 73.4000015258789 
1 26 42 1 36 4000.0 73.80000305175781 400.0 72.30000305175781 73.30000305175781 
1 26 43 1 37 4000.0 73.69999694824219 400.0 72.19999694824219 73.19999694824219 
1 26 44 1 38 4000.0 73.5999984741211 400.0 72.0999984741211 73.0999984741211 
1 26 45 1 39 4000.0 73.5 400.0 72.0 73.0 
1 26 46 1 40 4000.0 73.4000015258789 400.0 71.9000015258789 72.9000015258789 
1 26 47 1 41 4000.0 73.30000305175781 400.0 71.80000305175781 72.80000305175781 
1 26 48 1 42 4000.0 73.19999694824219 400.0 71.69999694824219 72.69999694824219 
1 26 49 1 43 4000.0 73.0999984741211 400.0 71.5999984741211 72.5999984741211 
