# Name file for MODPATH, generated by Flopy version 3.3.4.
MPBAS  86 base_mp.mpbas
DIS  11 base.dis
HEAD  88 base.hds
BUDGET  89 base.cbc
