# DIS package for  MODFLOW-NWT, generated by Flopy.
         3       130       100        71         4         1
  0  0  0
CONSTANT    2.640000E+03                           #delr                          
CONSTANT    2.640000E+03                           #delc                          
INTERNAL             1.1     (FREE) -7 #model_top                     
   1.704000E+03   1.710000E+03   1.715000E+03   1.722000E+03   1.729000E+03   1.735000E+03   1.742000E+03   1.753000E+03   1.769000E+03   1.780000E+03   1.785000E+03   1.786000E+03   1.786000E+03   1.791000E+03   1.798000E+03   1.810000E+03   1.823000E+03   1.839000E+03   1.857000E+03   1.878000E+03   1.901000E+03   1.925000E+03   1.954000E+03   1.979000E+03   2.006000E+03   2.034000E+03   2.068000E+03   2.102000E+03   2.170000E+03   2.174000E+03   2.211000E+03   2.247000E+03   2.283000E+03   2.320000E+03   2.357000E+03   2.398000E+03   2.444000E+03   2.485000E+03   2.527000E+03   2.578000E+03   2.626000E+03   2.678000E+03   2.742000E+03   2.835000E+03   2.911000E+03   3.040000E+03   3.064000E+03   3.061000E+03   3.120000E+03   3.186000E+03   3.219000E+03   3.278000E+03   3.349000E+03   3.451000E+03   3.581000E+03   3.613000E+03   3.613000E+03   3.623000E+03   3.652000E+03   3.621000E+03   3.583000E+03   3.555000E+03   3.529000E+03   3.513000E+03   3.473000E+03   3.475000E+03   3.507000E+03   3.547000E+03   3.586000E+03   3.624000E+03   3.666000E+03   3.713000E+03   3.764000E+03   3.815000E+03   3.868000E+03   3.915000E+03   3.984000E+03   4.046000E+03   4.116000E+03   4.220000E+03   4.314000E+03   4.460000E+03   4.535000E+03   4.560000E+03   4.578000E+03   4.565000E+03   4.536000E+03   4.473000E+03   4.359000E+03   4.278000E+03   4.198000E+03   4.101000E+03   4.016000E+03   3.912000E+03   3.881000E+03   3.826000E+03   3.746000E+03   3.672000E+03   3.580000E+03   3.484000E+03
   1.709000E+03   1.715000E+03   1.721000E+03   1.727000E+03   1.732000E+03   1.737000E+03   1.745000E+03   1.754000E+03   1.761000E+03   1.767000E+03   1.774000E+03   1.781000E+03   1.788000E+03   1.795000E+03   1.802000E+03   1.811000E+03   1.823000E+03   1.839000E+03   1.857000E+03   1.876000E+03   1.898000E+03   1.921000E+03   1.946000E+03   1.969000E+03   1.995000E+03   2.026000E+03   2.056000E+03   2.084000E+03   2.276000E+03   2.183000E+03   2.201000E+03   2.234000E+03   2.270000E+03   2.309000E+03   2.348000E+03   2.390000E+03   2.435000E+03   2.479000E+03   2.523000E+03   2.577000E+03   2.628000E+03   2.677000E+03   2.784000E+03   2.960000E+03   2.931000E+03   2.981000E+03   3.065000E+03   3.061000E+03   3.119000E+03   3.191000E+03   3.251000E+03   3.312000E+03   3.382000E+03   3.461000E+03   3.591000E+03   3.661000E+03   3.716000E+03   3.677000E+03   3.670000E+03   3.634000E+03   3.600000E+03   3.562000E+03   3.532000E+03   3.484000E+03   3.453000E+03   3.464000E+03   3.498000E+03   3.535000E+03   3.575000E+03   3.614000E+03   3.661000E+03   3.710000E+03   3.764000E+03   3.816000E+03   3.870000E+03   3.922000E+03   3.987000E+03   4.063000E+03   4.136000E+03   4.218000E+03   4.316000E+03   4.406000E+03   4.566000E+03   4.692000E+03   4.695000E+03   4.680000E+03   4.657000E+03   4.620000E+03   4.458000E+03   4.363000E+03   4.252000E+03   4.168000E+03   4.073000E+03   3.997000E+03   3.975000E+03   3.891000E+03   3.803000E+03   3.721000E+03   3.632000E+03   3.549000E+03
   1.717000E+03   1.723000E+03   1.726000E+03   1.734000E+03   1.739000E+03   1.746000E+03   1.752000E+03   1.762000E+03   1.769000E+03   1.774000E+03   1.780000E+03   1.784000E+03   1.792000E+03   1.800000E+03   1.807000E+03   1.814000E+03   1.823000E+03   1.837000E+03   1.855000E+03   1.873000E+03   1.894000E+03   1.915000E+03   1.939000E+03   1.965000E+03   1.990000E+03   2.017000E+03   2.046000E+03   2.078000E+03   2.226000E+03   2.185000E+03   2.189000E+03   2.224000E+03   2.259000E+03   2.302000E+03   2.343000E+03   2.387000E+03   2.430000E+03   2.478000E+03   2.526000E+03   2.585000E+03   2.645000E+03   2.698000E+03   2.761000E+03   2.848000E+03   2.889000E+03   2.950000E+03   2.987000E+03   3.036000E+03   3.103000E+03   3.172000E+03   3.265000E+03   3.378000E+03   3.497000E+03   3.605000E+03   3.812000E+03   3.799000E+03   3.745000E+03   3.690000E+03   3.656000E+03   3.614000E+03   3.580000E+03   3.560000E+03   3.525000E+03   3.487000E+03   3.434000E+03   3.442000E+03   3.485000E+03   3.529000E+03   3.564000E+03   3.616000E+03   3.657000E+03   3.705000E+03   3.773000E+03   3.815000E+03   3.857000E+03   3.918000E+03   3.917000E+03   3.980000E+03   4.055000E+03   4.155000E+03   4.294000E+03   4.440000E+03   4.606000E+03   4.877000E+03   4.904000E+03   4.838000E+03   4.765000E+03   4.695000E+03   4.548000E+03   4.454000E+03   4.302000E+03   4.195000E+03   4.111000E+03   4.071000E+03   4.023000E+03   3.949000E+03   3.855000E+03   3.774000E+03   3.693000E+03   3.606000E+03
   1.721000E+03   1.728000E+03   1.734000E+03   1.738000E+03   1.743000E+03   1.752000E+03   1.760000E+03   1.767000E+03   1.774000E+03   1.781000E+03   1.786000E+03   1.791000E+03   1.795000E+03   1.802000E+03   1.809000E+03   1.814000E+03   1.822000E+03   1.836000E+03   1.850000E+03   1.869000E+03   1.889000E+03   1.908000E+03   1.932000E+03   1.957000E+03   1.986000E+03   2.018000E+03   2.050000E+03   2.084000E+03   2.119000E+03   2.147000E+03   2.182000E+03   2.219000E+03   2.256000E+03   2.297000E+03   2.338000E+03   2.384000E+03   2.431000E+03   2.481000E+03   2.535000E+03   2.588000E+03   2.641000E+03   2.691000E+03   2.810000E+03   2.831000E+03   2.872000E+03   2.914000E+03   2.963000E+03   3.035000E+03   3.183000E+03   3.354000E+03   3.498000E+03   3.757000E+03   3.907000E+03   3.697000E+03   3.842000E+03   3.846000E+03   3.762000E+03   3.708000E+03   3.649000E+03   3.602000E+03   3.557000E+03   3.529000E+03   3.514000E+03   3.468000E+03   3.422000E+03   3.427000E+03   3.473000E+03   3.509000E+03   3.554000E+03   3.607000E+03   3.656000E+03   3.714000E+03   3.748000E+03   3.789000E+03   3.841000E+03   3.905000E+03   3.928000E+03   3.854000E+03   4.002000E+03   4.183000E+03   4.319000E+03   4.432000E+03   4.607000E+03   4.982000E+03   5.005000E+03   5.057000E+03   5.055000E+03   4.852000E+03   4.708000E+03   4.586000E+03   4.353000E+03   4.256000E+03   4.197000E+03   4.128000E+03   4.059000E+03   3.978000E+03   3.910000E+03   3.829000E+03   3.746000E+03   3.657000E+03
   1.724000E+03   1.725000E+03   1.734000E+03   1.738000E+03   1.748000E+03   1.751000E+03   1.761000E+03   1.769000E+03   1.777000E+03   1.786000E+03   1.792000E+03   1.797000E+03   1.802000E+03   1.807000E+03   1.813000E+03   1.819000E+03   1.826000E+03   1.836000E+03   1.850000E+03   1.868000E+03   1.886000E+03   1.904000E+03   1.929000E+03   1.956000E+03   1.985000E+03   2.017000E+03   2.045000E+03   2.074000E+03   2.103000E+03   2.138000E+03   2.175000E+03   2.212000E+03   2.250000E+03   2.294000E+03   2.337000E+03   2.386000E+03   2.434000E+03   2.482000E+03   2.533000E+03   2.586000E+03   2.638000E+03   2.692000E+03   2.768000E+03   2.816000E+03   2.850000E+03   2.920000E+03   3.064000E+03   3.268000E+03   3.306000E+03   3.382000E+03   3.416000E+03   3.544000E+03   3.731000E+03   3.821000E+03   4.057000E+03   3.877000E+03   3.805000E+03   3.714000E+03   3.652000E+03   3.588000E+03   3.557000E+03   3.512000E+03   3.474000E+03   3.448000E+03   3.406000E+03   3.409000E+03   3.448000E+03   3.493000E+03   3.549000E+03   3.593000E+03   3.658000E+03   3.690000E+03   3.719000E+03   3.805000E+03   3.839000E+03   3.857000E+03   3.874000E+03   3.722000E+03   3.860000E+03   4.017000E+03   4.095000E+03   4.282000E+03   4.498000E+03   4.662000E+03   4.794000E+03   5.100000E+03   5.318000E+03   5.107000E+03   4.741000E+03   4.542000E+03   4.406000E+03   4.314000E+03   4.251000E+03   4.170000E+03   4.090000E+03   4.019000E+03   3.950000E+03   3.881000E+03   3.804000E+03   3.716000E+03
   1.727000E+03   1.733000E+03   1.741000E+03   1.745000E+03   1.749000E+03   1.758000E+03   1.761000E+03   1.769000E+03   1.777000E+03   1.788000E+03   1.797000E+03   1.803000E+03   1.807000E+03   1.813000E+03   1.817000E+03   1.824000E+03   1.831000E+03   1.839000E+03   1.850000E+03   1.865000E+03   1.884000E+03   1.905000E+03   1.931000E+03   1.957000E+03   1.985000E+03   2.011000E+03   2.036000E+03   2.065000E+03   2.096000E+03   2.134000E+03   2.170000E+03   2.209000E+03   2.249000E+03   2.292000E+03   2.335000E+03   2.382000E+03   2.430000E+03   2.478000E+03   2.530000E+03   2.585000E+03   2.636000E+03   2.689000E+03   2.741000E+03   2.788000E+03   2.842000E+03   2.962000E+03   3.159000E+03   3.518000E+03   3.597000E+03   3.779000E+03   3.637000E+03   3.599000E+03   3.645000E+03   3.792000E+03   3.968000E+03   3.847000E+03   3.737000E+03   3.664000E+03   3.603000E+03   3.544000E+03   3.520000E+03   3.483000E+03   3.447000E+03   3.415000E+03   3.385000E+03   3.382000E+03   3.420000E+03   3.468000E+03   3.518000E+03   3.581000E+03   3.633000E+03   3.640000E+03   3.700000E+03   3.763000E+03   3.719000E+03   3.585000E+03   3.666000E+03   3.771000E+03   3.819000E+03   3.990000E+03   4.111000E+03   4.266000E+03   4.380000E+03   4.484000E+03   4.589000E+03   4.872000E+03   5.223000E+03   5.042000E+03   4.814000E+03   4.583000E+03   4.449000E+03   4.361000E+03   4.285000E+03   4.203000E+03   4.129000E+03   4.062000E+03   3.992000E+03   3.915000E+03   3.853000E+03   3.766000E+03
   1.829000E+03   1.738000E+03   1.742000E+03   1.748000E+03   1.756000E+03   1.763000E+03   1.770000E+03   1.778000E+03   1.783000E+03   1.788000E+03   1.798000E+03   1.807000E+03   1.813000E+03   1.817000E+03   1.822000E+03   1.828000E+03   1.834000E+03   1.842000E+03   1.850000E+03   1.862000E+03   1.879000E+03   1.901000E+03   1.925000E+03   1.951000E+03   1.976000E+03   2.001000E+03   2.028000E+03   2.059000E+03   2.091000E+03   2.128000E+03   2.164000E+03   2.202000E+03   2.241000E+03   2.284000E+03   2.332000E+03   2.378000E+03   2.425000E+03   2.472000E+03   2.523000E+03   2.574000E+03   2.624000E+03   2.670000E+03   2.717000E+03   2.760000E+03   2.816000E+03   3.068000E+03   3.321000E+03   3.512000E+03   3.782000E+03   3.956000E+03   3.869000E+03   3.864000E+03   3.718000E+03   3.909000E+03   3.933000E+03   3.838000E+03   3.712000E+03   3.655000E+03   3.593000E+03   3.544000E+03   3.492000E+03   3.461000E+03   3.427000E+03   3.395000E+03   3.361000E+03   3.371000E+03   3.432000E+03   3.476000E+03   3.497000E+03   3.552000E+03   3.593000E+03   3.652000E+03   3.728000E+03   3.731000E+03   3.556000E+03   3.545000E+03   3.863000E+03   4.031000E+03   3.901000E+03   3.877000E+03   4.071000E+03   4.291000E+03   4.266000E+03   4.485000E+03   4.747000E+03   5.097000E+03   5.154000E+03   4.953000E+03   4.790000E+03   4.595000E+03   4.466000E+03   4.362000E+03   4.274000E+03   4.193000E+03   4.115000E+03   4.040000E+03   3.940000E+03   3.841000E+03   3.754000E+03   3.682000E+03
   1.926000E+03   1.884000E+03   1.824000E+03   1.811000E+03   1.767000E+03   1.766000E+03   1.772000E+03   1.783000E+03   1.789000E+03   1.792000E+03   1.801000E+03   1.808000E+03   1.815000E+03   1.823000E+03   1.828000E+03   1.835000E+03   1.839000E+03   1.844000E+03   1.851000E+03   1.861000E+03   1.874000E+03   1.893000E+03   1.915000E+03   1.940000E+03   1.965000E+03   1.990000E+03   2.019000E+03   2.050000E+03   2.082000E+03   2.117000E+03   2.156000E+03   2.195000E+03   2.237000E+03   2.282000E+03   2.328000E+03   2.372000E+03   2.417000E+03   2.463000E+03   2.512000E+03   2.560000E+03   2.604000E+03   2.643000E+03   2.680000E+03   2.714000E+03   2.764000E+03   3.035000E+03   3.346000E+03   3.489000E+03   3.774000E+03   3.848000E+03   3.749000E+03   3.925000E+03   3.930000E+03   3.989000E+03   3.942000E+03   3.771000E+03   3.689000E+03   3.645000E+03   3.582000E+03   3.525000E+03   3.491000E+03   3.446000E+03   3.405000E+03   3.383000E+03   3.342000E+03   3.345000E+03   3.393000E+03   3.453000E+03   3.520000E+03   3.603000E+03   3.672000E+03   3.710000E+03   3.646000E+03   3.585000E+03   3.468000E+03   3.497000E+03   3.731000E+03   3.922000E+03   4.123000E+03   4.142000E+03   4.057000E+03   4.024000E+03   4.309000E+03   4.744000E+03   5.038000E+03   5.314000E+03   5.632000E+03   5.260000E+03   5.134000E+03   4.711000E+03   4.532000E+03   4.405000E+03   4.325000E+03   4.256000E+03   4.179000E+03   4.059000E+03   3.921000E+03   3.836000E+03   3.789000E+03   3.768000E+03
   1.790000E+03   1.823000E+03   1.981000E+03   1.848000E+03   1.787000E+03   1.779000E+03   1.776000E+03   1.782000E+03   1.793000E+03   1.798000E+03   1.805000E+03   1.812000E+03   1.818000E+03   1.826000E+03   1.832000E+03   1.838000E+03   1.843000E+03   1.849000E+03   1.856000E+03   1.862000E+03   1.874000E+03   1.889000E+03   1.908000E+03   1.930000E+03   1.956000E+03   1.982000E+03   2.013000E+03   2.044000E+03   2.076000E+03   2.111000E+03   2.149000E+03   2.188000E+03   2.230000E+03   2.276000E+03   2.320000E+03   2.365000E+03   2.408000E+03   2.454000E+03   2.497000E+03   2.538000E+03   2.578000E+03   2.613000E+03   2.638000E+03   2.676000E+03   2.780000E+03   3.081000E+03   3.385000E+03   3.499000E+03   3.551000E+03   3.698000E+03   3.853000E+03   3.869000E+03   3.959000E+03   4.025000E+03   3.951000E+03   3.750000E+03   3.684000E+03   3.619000E+03   3.554000E+03   3.499000E+03   3.467000E+03   3.429000E+03   3.393000E+03   3.357000E+03   3.329000E+03   3.316000E+03   3.371000E+03   3.431000E+03   3.507000E+03   3.577000E+03   3.617000E+03   3.520000E+03   3.478000E+03   3.453000E+03   3.402000E+03   3.455000E+03   3.769000E+03   3.905000E+03   4.136000E+03   4.358000E+03   4.375000E+03   4.358000E+03   4.253000E+03   4.809000E+03   5.510000E+03   5.767000E+03   5.967000E+03   5.757000E+03   5.346000E+03   4.952000E+03   4.696000E+03   4.546000E+03   4.505000E+03   4.381000E+03   4.250000E+03   4.042000E+03   4.025000E+03   4.039000E+03   3.967000E+03   3.853000E+03
   1.819000E+03   1.823000E+03   1.822000E+03   1.819000E+03   1.807000E+03   1.830000E+03   1.795000E+03   1.796000E+03   1.800000E+03   1.802000E+03   1.809000E+03   1.817000E+03   1.823000E+03   1.830000E+03   1.836000E+03   1.840000E+03   1.846000E+03   1.855000E+03   1.861000E+03   1.867000E+03   1.875000E+03   1.886000E+03   1.901000E+03   1.922000E+03   1.948000E+03   1.976000E+03   2.006000E+03   2.037000E+03   2.072000E+03   2.106000E+03   2.142000E+03   2.181000E+03   2.225000E+03   2.269000E+03   2.314000E+03   2.363000E+03   2.402000E+03   2.445000E+03   2.484000E+03   2.524000E+03   2.557000E+03   2.585000E+03   2.607000E+03   2.681000E+03   2.824000E+03   3.244000E+03   3.531000E+03   3.524000E+03   3.658000E+03   3.823000E+03   3.906000E+03   3.954000E+03   4.016000E+03   4.126000E+03   4.037000E+03   3.742000E+03   3.624000E+03   3.574000E+03   3.528000E+03   3.484000E+03   3.436000E+03   3.407000E+03   3.373000E+03   3.333000E+03   3.297000E+03   3.286000E+03   3.348000E+03   3.419000E+03   3.474000E+03   3.518000E+03   3.463000E+03   3.389000E+03   3.381000E+03   3.399000E+03   3.333000E+03   3.492000E+03   3.828000E+03   4.048000E+03   4.487000E+03   4.540000E+03   4.586000E+03   4.588000E+03   4.270000E+03   4.612000E+03   5.322000E+03   5.991000E+03   5.792000E+03   5.375000E+03   5.167000E+03   5.041000E+03   4.811000E+03   4.630000E+03   4.541000E+03   4.384000E+03   4.246000E+03   4.229000E+03   4.158000E+03   4.086000E+03   3.992000E+03   3.919000E+03
   1.852000E+03   1.854000E+03   1.850000E+03   1.925000E+03   1.912000E+03   1.849000E+03   1.822000E+03   1.819000E+03   1.834000E+03   1.825000E+03   1.820000E+03   1.822000E+03   1.831000E+03   1.837000E+03   1.840000E+03   1.845000E+03   1.849000E+03   1.859000E+03   1.866000E+03   1.871000E+03   1.879000E+03   1.886000E+03   1.896000E+03   1.914000E+03   1.938000E+03   1.965000E+03   1.995000E+03   2.027000E+03   2.064000E+03   2.100000E+03   2.137000E+03   2.174000E+03   2.219000E+03   2.262000E+03   2.305000E+03   2.349000E+03   2.387000E+03   2.428000E+03   2.463000E+03   2.500000E+03   2.530000E+03   2.555000E+03   2.614000E+03   2.717000E+03   2.882000E+03   3.090000E+03   3.438000E+03   3.600000E+03   3.737000E+03   3.816000E+03   3.940000E+03   4.074000E+03   4.172000E+03   4.085000E+03   3.821000E+03   3.701000E+03   3.621000E+03   3.541000E+03   3.500000E+03   3.454000E+03   3.412000E+03   3.379000E+03   3.363000E+03   3.326000E+03   3.278000E+03   3.255000E+03   3.324000E+03   3.384000E+03   3.444000E+03   3.405000E+03   3.357000E+03   3.319000E+03   3.367000E+03   3.323000E+03   3.287000E+03   3.659000E+03   3.963000E+03   4.309000E+03   5.146000E+03   4.938000E+03   4.947000E+03   4.564000E+03   4.426000E+03   4.589000E+03   5.129000E+03   6.066000E+03   6.054000E+03   5.531000E+03   5.273000E+03   5.111000E+03   4.908000E+03   4.767000E+03   4.545000E+03   4.398000E+03   4.412000E+03   4.314000E+03   4.166000E+03   4.068000E+03   4.010000E+03   3.907000E+03
   1.889000E+03   1.886000E+03   1.880000E+03   1.878000E+03   1.899000E+03   1.876000E+03   1.866000E+03   2.040000E+03   1.926000E+03   1.858000E+03   1.838000E+03   1.825000E+03   1.831000E+03   1.841000E+03   1.847000E+03   1.850000E+03   1.853000E+03   1.860000E+03   1.867000E+03   1.875000E+03   1.885000E+03   1.891000E+03   1.896000E+03   1.908000E+03   1.930000E+03   1.955000E+03   1.985000E+03   2.016000E+03   2.054000E+03   2.091000E+03   2.129000E+03   2.165000E+03   2.207000E+03   2.249000E+03   2.289000E+03   2.328000E+03   2.367000E+03   2.407000E+03   2.445000E+03   2.469000E+03   2.501000E+03   2.559000E+03   2.613000E+03   2.705000E+03   2.849000E+03   3.301000E+03   3.698000E+03   3.839000E+03   3.872000E+03   3.933000E+03   4.028000E+03   4.129000E+03   4.335000E+03   4.182000E+03   3.836000E+03   3.696000E+03   3.600000E+03   3.540000E+03   3.487000E+03   3.427000E+03   3.374000E+03   3.351000E+03   3.321000E+03   3.301000E+03   3.260000E+03   3.225000E+03   3.282000E+03   3.262000E+03   3.373000E+03   3.306000E+03   3.323000E+03   3.267000E+03   3.277000E+03   3.236000E+03   3.411000E+03   3.814000E+03   4.081000E+03   4.427000E+03   5.013000E+03   5.539000E+03   5.079000E+03   4.691000E+03   4.518000E+03   4.648000E+03   5.055000E+03   5.734000E+03   6.275000E+03   5.919000E+03   5.580000E+03   5.337000E+03   5.172000E+03   4.902000E+03   4.659000E+03   4.566000E+03   4.405000E+03   4.284000E+03   4.186000E+03   4.175000E+03   4.105000E+03   3.984000E+03
   1.931000E+03   1.922000E+03   1.915000E+03   1.919000E+03   1.917000E+03   1.949000E+03   2.038000E+03   2.272000E+03   2.093000E+03   1.975000E+03   1.910000E+03   1.858000E+03   1.833000E+03   1.841000E+03   1.849000E+03   1.858000E+03   1.858000E+03   1.864000E+03   1.871000E+03   1.878000E+03   1.886000E+03   1.894000E+03   1.904000E+03   1.907000E+03   1.922000E+03   1.947000E+03   1.976000E+03   2.006000E+03   2.042000E+03   2.079000E+03   2.118000E+03   2.154000E+03   2.192000E+03   2.232000E+03   2.269000E+03   2.306000E+03   2.347000E+03   2.382000E+03   2.402000E+03   2.437000E+03   2.491000E+03   2.539000E+03   2.590000E+03   2.811000E+03   2.993000E+03   3.350000E+03   3.631000E+03   3.835000E+03   3.630000E+03   3.868000E+03   4.127000E+03   4.292000E+03   4.241000E+03   4.244000E+03   3.922000E+03   3.720000E+03   3.627000E+03   3.528000E+03   3.446000E+03   3.387000E+03   3.359000E+03   3.315000E+03   3.302000E+03   3.262000E+03   3.235000E+03   3.195000E+03   3.241000E+03   3.245000E+03   3.240000E+03   3.236000E+03   3.249000E+03   3.215000E+03   3.195000E+03   3.247000E+03   3.544000E+03   3.811000E+03   4.018000E+03   4.326000E+03   4.739000E+03   5.192000E+03   5.004000E+03   5.075000E+03   4.617000E+03   4.680000E+03   5.048000E+03   5.752000E+03   6.537000E+03   6.282000E+03   5.958000E+03   5.663000E+03   5.211000E+03   4.892000E+03   4.771000E+03   4.622000E+03   4.479000E+03   4.361000E+03   4.290000E+03   4.230000E+03   4.113000E+03   4.027000E+03
   1.980000E+03   1.963000E+03   1.977000E+03   2.051000E+03   1.998000E+03   2.097000E+03   2.136000E+03   2.078000E+03   2.077000E+03   2.002000E+03   1.968000E+03   1.895000E+03   1.857000E+03   1.845000E+03   1.849000E+03   1.859000E+03   1.865000E+03   1.867000E+03   1.874000E+03   1.881000E+03   1.889000E+03   1.894000E+03   1.902000E+03   1.909000E+03   1.920000E+03   1.939000E+03   1.964000E+03   1.992000E+03   2.026000E+03   2.059000E+03   2.095000E+03   2.134000E+03   2.169000E+03   2.203000E+03   2.241000E+03   2.280000E+03   2.319000E+03   2.342000E+03   2.383000E+03   2.427000E+03   2.466000E+03   2.529000E+03   2.722000E+03   2.913000E+03   3.302000E+03   3.444000E+03   3.568000E+03   3.380000E+03   3.531000E+03   3.871000E+03   3.985000E+03   4.013000E+03   4.042000E+03   4.177000E+03   3.908000E+03   3.687000E+03   3.593000E+03   3.501000E+03   3.428000E+03   3.357000E+03   3.319000E+03   3.294000E+03   3.257000E+03   3.242000E+03   3.203000E+03   3.168000E+03   3.202000E+03   3.232000E+03   3.188000E+03   3.202000E+03   3.199000E+03   3.149000E+03   3.130000E+03   3.308000E+03   3.588000E+03   3.813000E+03   4.020000E+03   4.192000E+03   4.490000E+03   5.175000E+03   5.711000E+03   5.427000E+03   4.770000E+03   4.814000E+03   5.082000E+03   6.077000E+03   7.104000E+03   6.753000E+03   6.422000E+03   5.891000E+03   5.344000E+03   5.057000E+03   4.781000E+03   4.620000E+03   4.551000E+03   4.480000E+03   4.387000E+03   4.242000E+03   4.121000E+03   3.999000E+03
   2.074000E+03   2.043000E+03   2.075000E+03   2.288000E+03   2.081000E+03   2.134000E+03   2.087000E+03   1.989000E+03   1.941000E+03   1.927000E+03   1.919000E+03   1.894000E+03   1.871000E+03   1.855000E+03   1.852000E+03   1.859000E+03   1.868000E+03   1.874000E+03   1.879000E+03   1.884000E+03   1.891000E+03   1.896000E+03   1.899000E+03   1.903000E+03   1.915000E+03   1.926000E+03   1.950000E+03   1.973000E+03   2.002000E+03   2.032000E+03   2.065000E+03   2.104000E+03   2.135000E+03   2.173000E+03   2.216000E+03   2.257000E+03   2.279000E+03   2.318000E+03   2.360000E+03   2.388000E+03   2.453000E+03   2.589000E+03   2.829000E+03   3.177000E+03   3.293000E+03   3.020000E+03   3.096000E+03   3.409000E+03   3.972000E+03   3.885000E+03   3.769000E+03   3.745000E+03   3.937000E+03   4.245000E+03   3.929000E+03   3.841000E+03   3.623000E+03   3.499000E+03   3.420000E+03   3.328000E+03   3.272000E+03   3.261000E+03   3.222000E+03   3.209000E+03   3.177000E+03   3.134000E+03   3.150000E+03   3.155000E+03   3.162000E+03   3.175000E+03   3.130000E+03   3.080000E+03   3.139000E+03   3.401000E+03   3.739000E+03   3.933000E+03   4.098000E+03   4.322000E+03   4.649000E+03   5.631000E+03   6.036000E+03   5.391000E+03   4.892000E+03   4.960000E+03   5.193000E+03   5.845000E+03   6.698000E+03   7.091000E+03   6.496000E+03   5.868000E+03   5.531000E+03   5.096000E+03   4.836000E+03   4.648000E+03   4.555000E+03   4.486000E+03   4.370000E+03   4.221000E+03   4.112000E+03   4.005000E+03
   2.102000E+03   2.108000E+03   2.116000E+03   2.118000E+03   2.106000E+03   2.090000E+03   2.056000E+03   1.996000E+03   1.968000E+03   1.952000E+03   1.937000E+03   1.915000E+03   1.894000E+03   1.876000E+03   1.862000E+03   1.861000E+03   1.871000E+03   1.876000E+03   1.882000E+03   1.886000E+03   1.890000E+03   1.894000E+03   1.896000E+03   1.900000E+03   1.907000E+03   1.916000E+03   1.931000E+03   1.954000E+03   1.981000E+03   2.013000E+03   2.044000E+03   2.075000E+03   2.111000E+03   2.153000E+03   2.195000E+03   2.234000E+03   2.243000E+03   2.293000E+03   2.320000E+03   2.363000E+03   2.413000E+03   2.633000E+03   2.832000E+03   3.001000E+03   2.971000E+03   2.911000E+03   3.355000E+03   3.962000E+03   4.055000E+03   3.730000E+03   3.641000E+03   3.805000E+03   4.022000E+03   4.143000E+03   4.286000E+03   4.173000E+03   3.700000E+03   3.636000E+03   3.511000E+03   3.310000E+03   3.232000E+03   3.223000E+03   3.201000E+03   3.172000E+03   3.149000E+03   3.103000E+03   3.117000E+03   3.121000E+03   3.135000E+03   3.119000E+03   3.058000E+03   3.181000E+03   3.183000E+03   3.407000E+03   3.608000E+03   3.914000E+03   4.357000E+03   4.599000E+03   4.880000E+03   5.780000E+03   6.516000E+03   5.742000E+03   4.997000E+03   5.034000E+03   5.488000E+03   5.911000E+03   6.908000E+03   6.757000E+03   6.117000E+03   5.702000E+03   5.351000E+03   5.156000E+03   4.979000E+03   4.582000E+03   4.373000E+03   4.358000E+03   4.250000E+03   4.113000E+03   4.003000E+03   3.939000E+03
   2.129000E+03   2.182000E+03   2.259000E+03   2.188000E+03   2.139000E+03   2.131000E+03   2.134000E+03   2.040000E+03   2.004000E+03   1.979000E+03   1.963000E+03   1.943000E+03   1.922000E+03   1.903000E+03   1.885000E+03   1.871000E+03   1.873000E+03   1.879000E+03   1.882000E+03   1.888000E+03   1.893000E+03   1.897000E+03   1.899000E+03   1.903000E+03   1.910000E+03   1.918000E+03   1.927000E+03   1.939000E+03   1.960000E+03   1.989000E+03   2.015000E+03   2.049000E+03   2.087000E+03   2.125000E+03   2.165000E+03   2.193000E+03   2.220000E+03   2.262000E+03   2.286000E+03   2.331000E+03   2.406000E+03   2.761000E+03   2.681000E+03   2.720000E+03   2.781000E+03   3.099000E+03   3.691000E+03   3.775000E+03   3.594000E+03   3.390000E+03   3.705000E+03   3.937000E+03   3.790000E+03   3.805000E+03   4.088000E+03   3.841000E+03   3.682000E+03   3.647000E+03   3.492000E+03   3.301000E+03   3.193000E+03   3.177000E+03   3.159000E+03   3.132000E+03   3.110000E+03   3.069000E+03   3.082000E+03   3.109000E+03   3.113000E+03   3.052000E+03   3.147000E+03   3.293000E+03   3.253000E+03   3.372000E+03   3.588000E+03   3.835000E+03   4.194000E+03   4.928000E+03   5.384000E+03   6.165000E+03   6.432000E+03   5.583000E+03   5.065000E+03   5.108000E+03   5.725000E+03   6.162000E+03   6.956000E+03   6.961000E+03   6.033000E+03   5.525000E+03   5.354000E+03   5.016000E+03   4.729000E+03   4.605000E+03   4.417000E+03   4.299000E+03   4.184000E+03   4.125000E+03   4.097000E+03   4.042000E+03
   2.174000E+03   2.225000E+03   2.363000E+03   2.367000E+03   2.190000E+03   2.242000E+03   2.221000E+03   2.105000E+03   2.061000E+03   2.011000E+03   1.991000E+03   1.969000E+03   1.950000E+03   1.928000E+03   1.904000E+03   1.882000E+03   1.876000E+03   1.881000E+03   1.885000E+03   1.890000E+03   1.896000E+03   1.902000E+03   1.904000E+03   1.908000E+03   1.914000E+03   1.921000E+03   1.929000E+03   1.938000E+03   1.948000E+03   1.963000E+03   1.982000E+03   2.008000E+03   2.045000E+03   2.087000E+03   2.128000E+03   2.152000E+03   2.196000E+03   2.221000E+03   2.268000E+03   2.338000E+03   2.420000E+03   2.503000E+03   2.580000E+03   2.698000E+03   2.919000E+03   3.148000E+03   3.288000E+03   3.198000E+03   3.091000E+03   3.622000E+03   3.951000E+03   3.505000E+03   3.559000E+03   3.734000E+03   3.759000E+03   3.724000E+03   3.551000E+03   3.527000E+03   3.406000E+03   3.259000E+03   3.151000E+03   3.132000E+03   3.118000E+03   3.096000E+03   3.065000E+03   3.033000E+03   3.053000E+03   3.089000E+03   3.082000E+03   3.021000E+03   3.223000E+03   3.249000E+03   3.221000E+03   3.418000E+03   3.601000E+03   3.890000E+03   4.309000E+03   4.949000E+03   6.083000E+03   6.656000E+03   5.968000E+03   5.375000E+03   5.219000E+03   5.366000E+03   5.655000E+03   6.156000E+03   6.796000E+03   6.807000E+03   6.083000E+03   5.850000E+03   5.228000E+03   4.881000E+03   4.707000E+03   4.554000E+03   4.468000E+03   4.407000E+03   4.278000E+03   4.186000E+03   4.069000E+03   4.008000E+03
   2.214000E+03   2.259000E+03   2.365000E+03   2.316000E+03   2.237000E+03   2.239000E+03   2.265000E+03   2.225000E+03   2.093000E+03   2.042000E+03   2.014000E+03   1.991000E+03   1.971000E+03   1.945000E+03   1.918000E+03   1.896000E+03   1.881000E+03   1.884000E+03   1.889000E+03   1.893000E+03   1.897000E+03   1.902000E+03   1.907000E+03   1.913000E+03   1.919000E+03   1.925000E+03   1.932000E+03   1.942000E+03   1.950000E+03   1.958000E+03   1.966000E+03   1.976000E+03   2.004000E+03   2.048000E+03   2.092000E+03   2.123000E+03   2.155000E+03   2.194000E+03   2.245000E+03   2.310000E+03   2.380000E+03   2.452000E+03   2.520000E+03   2.656000E+03   2.703000E+03   2.824000E+03   2.929000E+03   2.966000E+03   3.336000E+03   3.659000E+03   3.361000E+03   3.436000E+03   3.660000E+03   3.531000E+03   3.517000E+03   3.477000E+03   3.322000E+03   3.310000E+03   3.266000E+03   3.189000E+03   3.127000E+03   3.080000E+03   3.074000E+03   3.054000E+03   3.027000E+03   2.995000E+03   3.033000E+03   3.059000E+03   3.019000E+03   3.051000E+03   3.198000E+03   3.173000E+03   3.208000E+03   3.375000E+03   3.544000E+03   4.019000E+03   4.859000E+03   5.527000E+03   6.567000E+03   6.776000E+03   5.803000E+03   5.432000E+03   5.527000E+03   6.116000E+03   6.053000E+03   6.051000E+03   6.804000E+03   6.851000E+03   6.197000E+03   5.548000E+03   5.146000E+03   4.930000E+03   4.822000E+03   4.717000E+03   4.598000E+03   4.468000E+03   4.219000E+03   4.141000E+03   4.031000E+03   4.088000E+03