# Name file for MODFLOW-2005, generated by Flopy version 3.3.4.
#xll:0.0; yll:0.0; rotation:0.0; units:feet; lenuni:1; start_datetime:1-1-1970
LIST               2  tucson.list
DIS               11  tucson.dis
BAS6              13  tucson.bas
OC                14  tucson.oc
CHD               24  tucson.chd
RCH               19  tucson.rch
EVT               22  tucson.evt
WEL               20  tucson.wel
DATA(BINARY)      51  tucson.hds REPLACE
DATA(BINARY)      53  tucson.cbc REPLACE
