# CHD package for  MODFLOW-2005, generated by Flopy.
        63
        63         0 # stress period 1
         1         2        11          1650.0          1650.0
         2         2        11          1650.0          1650.0
         3         2        11          1651.0          1651.0
         1         3        11          1648.0          1648.0
         2         3        11          1648.0          1648.0
         3         3        11          1648.0          1648.0
         1         4        11          1647.0          1647.0
         2         4        11          1647.0          1647.0
         3         4        11          1647.0          1647.0
         1         5        11          1647.0          1647.0
         2         5        11          1647.0          1647.0
         3         5        11          1647.0          1647.0
         1         6        11          1649.0          1649.0
         2         6        11          1649.0          1649.0
         3         6        11          1649.0          1649.0
         1         7        11          1654.0          1654.0
         2         7        11          1654.0          1654.0
         3         7        11          1654.0          1654.0
         1         8        11          1658.0          1658.0
         2         8        11          1658.0          1658.0
         3         8        11          1658.0          1658.0
         1         9        11          1663.0          1663.0
         2         9        11          1663.0          1663.0
         3         9        11          1663.0          1663.0
         1        10        11          1668.0          1668.0
         2        10        11          1668.0          1668.0
         3        10        11          1668.0          1668.0
         1        11        11          1675.0          1675.0
         2        11        11          1675.0          1675.0
         3        11        11          1675.0          1675.0
         2       122        47          3023.0          3023.0
         3       122        47          3023.0          3023.0
         2       122        48          3020.0          3020.0
         3       122        48          3020.0          3020.0
         1       122        49          3018.0          3018.0
         2       122        49          3018.0          3018.0
         3       122        49          3018.0          3018.0
         1       122        50          3016.0          3016.0
         2       122        50          3016.0          3016.0
         3       122        50          3016.0          3016.0
         1       122        51          3012.0          3012.0
         2       122        51          3012.0          3012.0
         3       122        51          3012.0          3012.0
         1       122        52          3010.0          3010.0
         2       122        52          3010.0          3010.0
         3       122        52          3010.0          3010.0
         1       122        53          3006.0          3006.0
         2       122        53          3006.0          3006.0
         3       122        53          3006.0          3006.0
         1       122        54          3006.0          3006.0
         2       122        54          3006.0          3006.0
         3       122        54          3006.0          3006.0
         1       122        55          3005.0          3005.0
         2       122        55          3005.0          3005.0
         3       122        55          3005.0          3005.0
         1       122        56          3005.0          3005.0
         2       122        56          3005.0          3005.0
         3       122        56          3005.0          3005.0
         2       122        57          3005.0          3005.0
         3       122        57          3005.0          3005.0
         3       122        58          3005.0          3005.0
         3       122        59          3008.0          3008.0
         3       122        60          3010.0          3010.0
        63         0 # stress period 2
         1         2        11          1650.0          1646.0
         2         2        11          1650.0          1647.0
         3         2        11          1651.0          1647.0
         1         3        11          1648.0          1644.0
         2         3        11          1648.0          1645.0
         3         3        11          1648.0          1645.0
         1         4        11          1647.0          1643.0
         2         4        11          1647.0          1644.0
         3         4        11          1647.0          1644.0
         1         5        11          1647.0          1644.0
         2         5        11          1647.0          1645.0
         3         5        11          1647.0          1645.0
         1         6        11          1649.0          1645.0
         2         6        11          1649.0          1646.0
         3         6        11          1649.0          1646.0
         1         7        11          1654.0          1650.0
         2         7        11          1654.0          1651.0
         3         7        11          1654.0          1651.0
         1         8        11          1658.0          1654.0
         2         8        11          1658.0          1655.0
         3         8        11          1658.0          1655.0
         1         9        11          1663.0          1659.0
         2         9        11          1663.0          1660.0
         3         9        11          1663.0          1660.0
         1        10        11          1668.0          1665.0
         2        10        11          1668.0          1666.0
         3        10        11          1668.0          1666.0
         1        11        11          1675.0          1672.0
         2        11        11          1675.0          1673.0
         3        11        11          1675.0          1673.0
         2       122        47          3023.0          3023.0
         3       122        47          3023.0          3023.0
         2       122        48          3019.0          3019.0
         3       122        48          3019.0          3019.0
         1       122        49          3014.0          3014.0
         2       122        49          3014.0          3014.0
         3       122        49          3014.0          3014.0
         1       122        50          3012.0          3012.0
         2       122        50          3012.0          3012.0
         3       122        50          3012.0          3012.0
         1       122        51          3010.0          3009.0
         2       122        51          3010.0          3009.0
         3       122        51          3010.0          3009.0
         1       122        52          3009.0          3009.0
         2       122        52          3009.0          3009.0
         3       122        52          3009.0          3009.0
         1       122        53          3006.0          3006.0
         2       122        53          3006.0          3006.0
         3       122        53          3006.0          3006.0
         1       122        54          3006.0          3006.0
         2       122        54          3006.0          3006.0
         3       122        54          3006.0          3006.0
         1       122        55          3005.0          3005.0
         2       122        55          3005.0          3005.0
         3       122        55          3005.0          3005.0
         1       122        56          3005.0          3005.0
         2       122        56          3005.0          3005.0
         3       122        56          3005.0          3005.0
         2       122        57          3005.0          3005.0
         3       122        57          3005.0          3005.0
         3       122        58          3005.0          3005.0
         3       122        59          3008.0          3008.0
         3       122        60          3010.0          3010.0
        63         0 # stress period 3
         1         2        11          1646.0          1644.0
         2         2        11          1647.0          1645.0
         3         2        11          1647.0          1645.0
         1         3        11          1644.0          1642.0
         2         3        11          1645.0          1643.0
         3         3        11          1645.0          1643.0
         1         4        11          1643.0          1642.0
         2         4        11          1644.0          1643.0
         3         4        11          1644.0          1643.0
         1         5        11          1644.0          1642.0
         2         5        11          1645.0          1643.0
         3         5        11          1645.0          1643.0
         1         6        11          1645.0          1643.0
         2         6        11          1646.0          1644.0
         3         6        11          1646.0          1644.0
         1         7        11          1650.0          1647.0
         2         7        11          1651.0          1648.0
         3         7        11          1651.0          1648.0
         1         8        11          1654.0          1652.0
         2         8        11          1655.0          1653.0
         3         8        11          1655.0          1653.0
         1         9        11          1659.0          1657.0
         2         9        11          1660.0          1658.0
         3         9        11          1660.0          1658.0
         1        10        11          1665.0          1664.0
         2        10        11          1666.0          1665.0
         3        10        11          1666.0          1665.0
         1        11        11          1672.0          1671.0
         2        11        11          1673.0          1672.0
         3        11        11          1673.0          1672.0
         2       122        47          3023.0          3023.0
         3       122        47          3023.0          3023.0
         2       122        48          3019.0          3016.0
         3       122        48          3019.0          3016.0
         1       122        49          3014.0          3011.0
         2       122        49          3014.0          3011.0
         3       122        49          3014.0          3011.0
         1       122        50          3012.0          3010.0
         2       122        50          3012.0          3010.0
         3       122        50          3012.0          3010.0
         1       122        51          3009.0          3008.0
         2       122        51          3009.0          3008.0
         3       122        51          3009.0          3008.0
         1       122        52          3009.0          3007.0
         2       122        52          3009.0          3007.0
         3       122        52          3009.0          3007.0
         1       122        53          3006.0          3005.0
         2       122        53          3006.0          3005.0
         3       122        53          3006.0          3005.0
         1       122        54          3006.0          3005.0
         2       122        54          3006.0          3005.0
         3       122        54          3006.0          3005.0
         1       122        55          3005.0          3005.0
         2       122        55          3005.0          3005.0
         3       122        55          3005.0          3005.0
         1       122        56          3005.0          3005.0
         2       122        56          3005.0          3005.0
         3       122        56          3005.0          3005.0
         2       122        57          3005.0          3005.0
         3       122        57          3005.0          3005.0
         3       122        58          3005.0          3005.0
         3       122        59          3008.0          3008.0
         3       122        60          3010.0          3010.0
        63         0 # stress period 4
         1         2        11          1644.0          1642.0
         2         2        11          1645.0          1643.0
         3         2        11          1645.0          1643.0
         1         3        11          1642.0          1640.0
         2         3        11          1643.0          1641.0
         3         3        11          1643.0          1641.0
         1         4        11          1642.0          1640.0
         2         4        11          1643.0          1641.0
         3         4        11          1643.0          1641.0
         1         5        11          1642.0          1639.0
         2         5        11          1643.0          1640.0
         3         5        11          1643.0          1640.0
         1         6        11          1643.0          1641.0
         2         6        11          1644.0          1642.0
         3         6        11          1644.0          1642.0
         1         7        11          1647.0          1646.0
         2         7        11          1648.0          1647.0
         3         7        11          1648.0          1647.0
         1         8        11          1652.0          1650.0
         2         8        11          1653.0          1651.0
         3         8        11          1653.0          1651.0
         1         9        11          1657.0          1656.0
         2         9        11          1658.0          1657.0
         3         9        11          1658.0          1657.0
         1        10        11          1664.0          1662.0
         2        10        11          1665.0          1663.0
         3        10        11          1665.0          1663.0
         1        11        11          1671.0          1670.0
         2        11        11          1672.0          1671.0
         3        11        11          1672.0          1671.0
         2       122        47          3023.0          3023.0
         3       122        47          3023.0          3023.0
         2       122        48          3016.0          3018.0
         3       122        48          3016.0          3018.0
         1       122        49          3011.0          3013.0
         2       122        49          3011.0          3013.0
         3       122        49          3011.0          3013.0
         1       122        50          3010.0          3012.0
         2       122        50          3010.0          3012.0
         3       122        50          3010.0          3012.0
         1       122        51          3008.0          3007.0
         2       122        51          3008.0          3007.0
         3       122        51          3008.0          3007.0
         1       122        52          3007.0          3006.0
         2       122        52          3007.0          3006.0
         3       122        52          3007.0          3006.0
         1       122        53          3005.0          3004.0
         2       122        53          3005.0          3004.0
         3       122        53          3005.0          3004.0
         1       122        54          3005.0          3004.0
         2       122        54          3005.0          3004.0
         3       122        54          3005.0          3004.0
         1       122        55          3005.0          3005.0
         2       122        55          3005.0          3005.0
         3       122        55          3005.0          3005.0
         1       122        56          3005.0          3005.0
         2       122        56          3005.0          3005.0
         3       122        56          3005.0          3005.0
         2       122        57          3005.0          3005.0
         3       122        57          3005.0          3005.0
         3       122        58          3005.0          3005.0
         3       122        59          3008.0          3008.0
         3       122        60          3010.0          3010.0
        63         0 # stress period 5
         1         2        11          1642.0          1640.0
         2         2        11          1643.0          1641.0
         3         2        11          1643.0          1641.0
         1         3        11          1640.0          1638.0
         2         3        11          1641.0          1639.0
         3         3        11          1641.0          1639.0
         1         4        11          1640.0          1637.0
         2         4        11          1641.0          1638.0
         3         4        11          1641.0          1638.0
         1         5        11          1639.0          1637.0
         2         5        11          1640.0          1638.0
         3         5        11          1640.0          1638.0
         1         6        11          1641.0          1639.0
         2         6        11          1642.0          1640.0
         3         6        11          1642.0          1640.0
         1         7        11          1646.0          1644.0
         2         7        11          1647.0          1645.0
         3         7        11          1647.0          1645.0
         1         8        11          1650.0          1649.0
         2         8        11          1651.0          1650.0
         3         8        11          1651.0          1650.0
         1         9        11          1656.0          1654.0
         2         9        11          1657.0          1655.0
         3         9        11          1657.0          1655.0
         1        10        11          1662.0          1661.0
         2        10        11          1663.0          1662.0
         3        10        11          1663.0          1662.0
         1        11        11          1670.0          1669.0
         2        11        11          1671.0          1670.0
         3        11        11          1671.0          1670.0
         2       122        47          3023.0          3023.0
         3       122        47          3023.0          3023.0
         2       122        48          3018.0          3021.0
         3       122        48          3018.0          3021.0
         1       122        49          3013.0          3015.0
         2       122        49          3013.0          3015.0
         3       122        49          3013.0          3015.0
         1       122        50          3012.0          3014.0
         2       122        50          3012.0          3014.0
         3       122        50          3012.0          3014.0
         1       122        51          3007.0          3006.0
         2       122        51          3007.0          3006.0
         3       122        51          3007.0          3006.0
         1       122        52          3006.0          3007.0
         2       122        52          3006.0          3007.0
         3       122        52          3006.0          3007.0
         1       122        53          3004.0          3004.0
         2       122        53          3004.0          3004.0
         3       122        53          3004.0          3004.0
         1       122        54          3004.0          3004.0
         2       122        54          3004.0          3004.0
         3       122        54          3004.0          3004.0
         1       122        55          3005.0          3005.0
         2       122        55          3005.0          3005.0
         3       122        55          3005.0          3005.0
         1       122        56          3005.0          3005.0
         2       122        56          3005.0          3005.0
         3       122        56          3005.0          3005.0
         2       122        57          3005.0          3005.0
         3       122        57          3005.0          3005.0
         3       122        58          3005.0          3005.0
         3       122        59          3008.0          3008.0
         3       122        60          3010.0          3010.0
        63         0 # stress period 6
         1         2        11          1640.0          1638.0
         2         2        11          1641.0          1639.0
         3         2        11          1641.0          1639.0
         1         3        11          1638.0          1635.0
         2         3        11          1639.0          1636.0
         3         3        11          1639.0          1636.0
         1         4        11          1637.0          1635.0
         2         4        11          1638.0          1636.0
         3         4        11          1638.0          1636.0
         1         5        11          1637.0          1635.0
         2         5        11          1638.0          1636.0
         3         5        11          1638.0          1636.0
         1         6        11          1639.0          1637.0
         2         6        11          1640.0          1638.0
         3         6        11          1640.0          1638.0
         1         7        11          1644.0          1641.0
         2         7        11          1645.0          1642.0
         3         7        11          1645.0          1642.0
         1         8        11          1649.0          1646.0
         2         8        11          1650.0          1647.0
         3         8        11          1650.0          1647.0
         1         9        11          1654.0          1652.0
         2         9        11          1655.0          1653.0
         3         9        11          1655.0          1653.0
         1        10        11          1661.0          1659.0
         2        10        11          1662.0          1660.0
         3        10        11          1662.0          1660.0
         1        11        11          1669.0          1667.0
         2        11        11          1670.0          1668.0
         3        11        11          1670.0          1668.0
         2       122        47          3023.0          3023.0
         3       122        47          3023.0          3023.0
         2       122        48          3021.0          3023.0
         3       122        48          3021.0          3023.0
         1       122        49          3015.0          3018.0
         2       122        49          3015.0          3018.0
         3       122        49          3015.0          3018.0
         1       122        50          3014.0          3016.0
         2       122        50          3014.0          3016.0
         3       122        50          3014.0          3016.0
         1       122        51          3006.0          3005.0
         2       122        51          3006.0          3005.0
         3       122        51          3006.0          3005.0
         1       122        52          3007.0          3004.0
         2       122        52          3007.0          3004.0
         3       122        52          3007.0          3004.0
         1       122        53          3004.0          3005.0
         2       122        53          3004.0          3005.0
         3       122        53          3004.0          3005.0
         1       122        54          3004.0          3005.0
         2       122        54          3004.0          3005.0
         3       122        54          3004.0          3005.0
         1       122        55          3005.0          3005.0
         2       122        55          3005.0          3005.0
         3       122        55          3005.0          3005.0
         1       122        56          3005.0          3005.0
         2       122        56          3005.0          3005.0
         3       122        56          3005.0          3005.0
         2       122        57          3005.0          3005.0
         3       122        57          3005.0          3005.0
         3       122        58          3005.0          3005.0
         3       122        59          3008.0          3008.0
         3       122        60          3010.0          3010.0
        63         0 # stress period 7
         1         2        11          1638.0          1635.0
         2         2        11          1639.0          1636.0
         3         2        11          1639.0          1636.0
         1         3        11          1635.0          1633.0
         2         3        11          1636.0          1634.0
         3         3        11          1636.0          1634.0
         1         4        11          1635.0          1633.0
         2         4        11          1636.0          1634.0
         3         4        11          1636.0          1634.0
         1         5        11          1635.0          1632.0
         2         5        11          1636.0          1633.0
         3         5        11          1636.0          1633.0
         1         6        11          1637.0          1635.0
         2         6        11          1638.0          1636.0
         3         6        11          1638.0          1636.0
         1         7        11          1641.0          1639.0
         2         7        11          1642.0          1640.0
         3         7        11          1642.0          1640.0
         1         8        11          1646.0          1644.0
         2         8        11          1647.0          1645.0
         3         8        11          1647.0          1645.0
         1         9        11          1652.0          1650.0
         2         9        11          1653.0          1651.0
         3         9        11          1653.0          1651.0
         1        10        11          1659.0          1657.0
         2        10        11          1660.0          1658.0
         3        10        11          1660.0          1658.0
         1        11        11          1667.0          1665.0
         2        11        11          1668.0          1667.0
         3        11        11          1668.0          1667.0
         2       122        47          3023.0          3023.0
         3       122        47          3023.0          3023.0
         2       122        48          3023.0          3025.0
         3       122        48          3023.0          3025.0
         1       122        49          3018.0          3020.0
         2       122        49          3018.0          3020.0
         3       122        49          3018.0          3020.0
         1       122        50          3016.0          3019.0
         2       122        50          3016.0          3019.0
         3       122        50          3016.0          3019.0
         1       122        51          3005.0          3002.0
         2       122        51          3005.0          3002.0
         3       122        51          3005.0          3002.0
         1       122        52          3004.0          3002.0
         2       122        52          3004.0          3002.0
         3       122        52          3004.0          3002.0
         1       122        53          3005.0          3004.0
         2       122        53          3005.0          3004.0
         3       122        53          3005.0          3004.0
         1       122        54          3005.0          3004.0
         2       122        54          3005.0          3004.0
         3       122        54          3005.0          3004.0
         1       122        55          3005.0          3005.0
         2       122        55          3005.0          3005.0
         3       122        55          3005.0          3005.0
         1       122        56          3005.0          3005.0
         2       122        56          3005.0          3005.0
         3       122        56          3005.0          3005.0
         2       122        57          3005.0          3005.0
         3       122        57          3005.0          3005.0
         3       122        58          3005.0          3005.0
         3       122        59          3008.0          3008.0
         3       122        60          3010.0          3010.0
        63         0 # stress period 8
         1         2        11          1635.0          1633.0
         2         2        11          1636.0          1634.0
         3         2        11          1636.0          1634.0
         1         3        11          1633.0          1631.0
         2         3        11          1634.0          1632.0
         3         3        11          1634.0          1632.0
         1         4        11          1633.0          1630.0
         2         4        11          1634.0          1631.0
         3         4        11          1634.0          1631.0
         1         5        11          1632.0          1629.0
         2         5        11          1633.0          1630.0
         3         5        11          1633.0          1630.0
         1         6        11          1635.0          1632.0
         2         6        11          1636.0          1633.0
         3         6        11          1636.0          1633.0
         1         7        11          1639.0          1636.0
         2         7        11          1640.0          1637.0
         3         7        11          1640.0          1637.0
         1         8        11          1644.0          1641.0
         2         8        11          1645.0          1642.0
         3         8        11          1645.0          1642.0
         1         9        11          1650.0          1647.0
         2         9        11          1651.0          1648.0
         3         9        11          1651.0          1648.0
         1        10        11          1657.0          1655.0
         2        10        11          1658.0          1656.0
         3        10        11          1658.0          1656.0
         1        11        11          1665.0          1663.0
         2        11        11          1666.0          1664.0