# Name file for MODPATH, generated by Flopy version 3.3.4.
MPBAS  86 stream_mp.mpbas
DIS  11 stream.dis
HEAD  88 stream.hds
BUDGET  89 stream.cbc
