# Name file for MODFLOW-2005, generated by Flopy version 3.3.4.
#xll:0.0; yll:0.0; rotation:0.0; units:meters; lenuni:2; start_datetime:1-1-1970
LIST               2  base.list
DIS               11  base.dis
BAS6              13  base.bas
LPF               15  base.lpf
OC                14  base.oc
PCG               27  base.pcg
RCH               19  base.rch
DATA(BINARY)      53  base.cbc REPLACE
DATA(BINARY)      51  base.hds REPLACE
